<?xml version="1.0" encoding="UTF-8"?>
<routes xmlns:xsi="http://www.w3.org/2001/XMLSchema-instance" xsi:noNamespaceSchemaLocation="http://sumo.sf.net/xsd/routes_file.xsd">
	<vType id="charger" accel="0.1" decel="10.0" sigma="0.5" length="5" maxSpeed="0.1" color="0,0,1">
		<param key="maximumBatteryCapacity" value="2000"/>
		<param key="actualBatteryCapacity" value="2000"/>
		<param key="vehicleMass" value="1000"/>
		<param key="frontSurfaceArea" value="2"/>
		<param key="airDragCoefficient" value="0.06"/>
		<param key="constantPowerIntake" value="50"/>
		<param key="propulsionEfficiency" value="1.0"/>
		<param key="recuperationEfficiency" value="1.0"/>
	</vType>
	<vehicle id="charger1" depart="0" departPos="0" type="charger">
		<route edges="360632526"/>
	</vehicle>
	<vehicle id="charger2" depart="0" departPos="0" type="charger">
		<route edges="29997526"/>
	</vehicle>
	<vehicle id="charger3" depart="0" departPos="0" type="charger">
		<route edges="-29396342"/>
	</vehicle>
	<vehicle id="charger4" depart="0" departPos="0" type="charger">
		<route edges="-29473626#1"/>
	</vehicle>
</routes>
