<?xml version="1.0" encoding="UTF-8"?>
<routes xmlns:xsi="http://www.w3.org/2001/XMLSchema-instance" xsi:noNamespaceSchemaLocation="http://sumo.sf.net/xsd/routes_file.xsd">
	<vType id="type0" maxSpeed="1.0"/>
	<vType id="type1" maxSpeed="0.8146840278383418"/>
	<vType id="type2" maxSpeed="0.9158502108969216"/>
	<vType id="type3" maxSpeed="1.0"/>
	<vType id="type4" maxSpeed="0.38894447473645954"/>
	<vType id="type5" maxSpeed="0.939604433403402"/>
	<vType id="type6" maxSpeed="0.8618862115603637"/>
	<vType id="type7" maxSpeed="1.0"/>
	<vType id="type8" maxSpeed="0.08505278851127271"/>
	<vType id="type9" maxSpeed="1.0"/>
	<vType id="type10" maxSpeed="1.4471832729047605"/>
	<vType id="type11" maxSpeed="8.0"/>
	<vType id="type12" maxSpeed="1.0"/>
	<vType id="type13" maxSpeed="0.8425331431156269"/>
	<vType id="type14" maxSpeed="0.5542355357269317"/>
	<vType id="type15" maxSpeed="1.0"/>
	<vType id="type16" maxSpeed="1.0140374424766423"/>
	<vType id="type17" maxSpeed="0.018158307769137478"/>
	<vType id="type18" maxSpeed="1.0"/>
	<vType id="type19" maxSpeed="0.04427271763708311"/>
	<vType id="type20" maxSpeed="0.08449929178470254"/>
	<vType id="type21" maxSpeed="0.4006751799068716"/>
	<vType id="type22" maxSpeed="0.7694532080822408"/>
	<vType id="type23" maxSpeed="0.9510898445100918"/>
	<vType id="type24" maxSpeed="0.9796863291800986"/>
	<vType id="type25" maxSpeed="0.6621124962845103"/>
	<vType id="type26" maxSpeed="0.01424010081110342"/>
	<vType id="type27" maxSpeed="1.0"/>
	<vType id="type28" maxSpeed="0.01831622102745761"/>
	<vType id="type29" maxSpeed="0.5381944468713414"/>
	<vType id="type30" maxSpeed="0.0703293529870314"/>
	<vType id="type31" maxSpeed="1.0"/>
	<vType id="type32" maxSpeed="0.40506893584136866"/>
	<vType id="type33" maxSpeed="1.0"/>
	<vType id="type34" maxSpeed="1.2330471510021328"/>
	<vType id="type35" maxSpeed="0.8257764907386154"/>
	<vType id="type36" maxSpeed="0.12328675959341788"/>
	<vType id="type37" maxSpeed="0.29717720046529666"/>
	<vType id="type38" maxSpeed="0.5944937969596367"/>
	<vType id="type39" maxSpeed="1.1922010178117048"/>
	<vType id="type40" maxSpeed="0.12228118768003546"/>
	<vType id="type41" maxSpeed="0.017993990809473316"/>
	<vType id="type42" maxSpeed="0.8505697615156145"/>
	<vType id="type43" maxSpeed="0.6603037035741152"/>
	<vType id="type44" maxSpeed="0.9773019264448333"/>
	<vType id="type45" maxSpeed="1.1969895356786036"/>
	<vType id="type46" maxSpeed="0.029524593979981018"/>
	<vType id="type47" maxSpeed="1.1513649420254315"/>
	<vType id="type48" maxSpeed="0.31415224790809815"/>
	<vType id="type49" maxSpeed="0.07732718178146455"/>
	<vType id="type50" maxSpeed="0.013988706726709823"/>
	<vType id="type51" maxSpeed="0.16383086000357586"/>
	<vType id="type52" maxSpeed="1.0"/>
	<vType id="type53" maxSpeed="0.6499080701754387"/>
	<vType id="type54" maxSpeed="0.3690497197613452"/>
	<vType id="type55" maxSpeed="1.0482698560148629"/>
	<vType id="type56" maxSpeed="1.1468327221042651"/>
	<vType id="type57" maxSpeed="0.6287912798319181"/>
	<vType id="type58" maxSpeed="0.8682658000276592"/>
	<vType id="type59" maxSpeed="0.5292364920583703"/>
	<vType id="type60" maxSpeed="1.1079536076138299"/>
	<vType id="type61" maxSpeed="0.5909351656095841"/>
	<vType id="type62" maxSpeed="5.441919463087249"/>
	<vType id="type63" maxSpeed="0.9231586459673295"/>
	<vType id="type64" maxSpeed="1.0"/>
	<vType id="type65" maxSpeed="0.03275789917887222"/>
	<vType id="type66" maxSpeed="0.013346421559878635"/>
	<vType id="type67" maxSpeed="0.09408931991075037"/>
	<vType id="type68" maxSpeed="0.05855005633138575"/>
	<vType id="type69" maxSpeed="0.9763134426462481"/>
	<vType id="type70" maxSpeed="0.10989206214389356"/>
	<vType id="type71" maxSpeed="3.740966796875"/>
	<vType id="type72" maxSpeed="1.1729777473106946"/>
	<vType id="type73" maxSpeed="0.2415589913491625"/>
	<vType id="type74" maxSpeed="1.1957864654778234"/>
	<vType id="type75" maxSpeed="0.32219371459829543"/>
	<vType id="type76" maxSpeed="0.049421529975425635"/>
	<vType id="type77" maxSpeed="0.0852753761137992"/>
	<vType id="type78" maxSpeed="1.0"/>
	<vType id="type79" maxSpeed="1.25788183954347"/>
	<vType id="type80" maxSpeed="0.10209411764705882"/>
	<vType id="type81" maxSpeed="0.02332205301748449"/>
	<vType id="type82" maxSpeed="0.7808288218385737"/>
	<vType id="type83" maxSpeed="0.01402225278600649"/>
	<vType id="type84" maxSpeed="1.0"/>
	<vType id="type85" maxSpeed="0.8819139704970864"/>
	<vType id="type86" maxSpeed="0.3139198822528018"/>
	<vType id="type87" maxSpeed="0.6623497519489724"/>
	<vType id="type88" maxSpeed="1.0"/>
	<vType id="type89" maxSpeed="0.3479316130627529"/>
	<vType id="type90" maxSpeed="0.956968395375967"/>
	<vType id="type91" maxSpeed="0.03118340707964602"/>
	<vType id="type92" maxSpeed="1.1871663360725422"/>
	<vType id="type93" maxSpeed="0.93351347045704"/>
	<vType id="type94" maxSpeed="9.516538461538461"/>
	<vType id="type95" maxSpeed="0.013540467901657674"/>
	<vType id="type96" maxSpeed="0.09653540189338036"/>
	<vType id="type97" maxSpeed="0.9399351173086229"/>
	<vType id="type98" maxSpeed="0.6442211227060092"/>
	<vType id="type99" maxSpeed="0.7264603388007531"/>
	<vType id="type100" maxSpeed="0.7072492035398227"/>
	<vType id="type101" maxSpeed="0.7535596568662342"/>
	<vType id="type102" maxSpeed="1.0"/>
	<vType id="type103" maxSpeed="1.0"/>
	<vType id="type104" maxSpeed="1.0"/>
	<vType id="type105" maxSpeed="1.0"/>
	<vType id="type106" maxSpeed="0.922314736803546"/>
	<vType id="type107" maxSpeed="1.0"/>
	<vType id="type108" maxSpeed="0.1983710890840127"/>
	<vType id="type109" maxSpeed="1.162406165744288"/>
	<vType id="type110" maxSpeed="0.8537128074793507"/>
	<vType id="type111" maxSpeed="1.2596939283049702"/>
	<vType id="type112" maxSpeed="0.010006119400298772"/>
	<vType id="type113" maxSpeed="0.352693661971831"/>
	<vType id="type114" maxSpeed="1.0327000177714591"/>
	<vType id="type115" maxSpeed="0.9825051239551591"/>
	<vType id="type116" maxSpeed="0.1945298863823481"/>
	<vType id="type117" maxSpeed="0.19016553518290835"/>
	<vType id="type118" maxSpeed="0.12855526134426348"/>
	<vType id="type119" maxSpeed="0.6533007343658315"/>
	<vType id="type120" maxSpeed="1.0"/>
	<vType id="type121" maxSpeed="0.28465691125381626"/>
	<vType id="type122" maxSpeed="0.01640168128654971"/>
	<vType id="type123" maxSpeed="0.46573609832692614"/>
	<vType id="type124" maxSpeed="1.0"/>
	<vType id="type125" maxSpeed="0.015820286659316424"/>
	<vType id="type126" maxSpeed="1.0"/>
	<vType id="type127" maxSpeed="1.0"/>
	<vType id="type128" maxSpeed="0.7868999075735331"/>
	<vType id="type129" maxSpeed="1.0"/>
	<vType id="type130" maxSpeed="0.8658198747676711"/>
	<vType id="type131" maxSpeed="0.6835315507235726"/>
	<vType id="type132" maxSpeed="0.8169278072920454"/>
	<vType id="type133" maxSpeed="1.0765918379796253"/>
	<vType id="type134" maxSpeed="0.0777914178896267"/>
	<vType id="type135" maxSpeed="0.08089974387120381"/>
	<vType id="type136" maxSpeed="1.0"/>
	<vType id="type137" maxSpeed="0.06802196966817439"/>
	<vType id="type138" maxSpeed="0.44636261406581257"/>
	<vType id="type139" maxSpeed="0.019476573859074243"/>
	<vType id="type140" maxSpeed="8.443626016260161"/>
	<vType id="type141" maxSpeed="1.0991122584012087"/>
	<vType id="type142" maxSpeed="0.6852107726136553"/>
	<vType id="type143" maxSpeed="6.749844357976654"/>
	<vType id="type144" maxSpeed="0.7984608331900751"/>
	<vType id="type145" maxSpeed="0.22900458984572458"/>
	<vType id="type146" maxSpeed="1.0"/>
	<vType id="type147" maxSpeed="8.969403874813711"/>
	<vType id="type148" maxSpeed="7.003385689354276"/>
	<vType id="type149" maxSpeed="9.009685628742515"/>
	<vType id="type150" maxSpeed="8.911539855072464"/>
	<vType id="type151" maxSpeed="8.947191201353638"/>
	<vType id="type152" maxSpeed="0.2765324980422865"/>
	<vType id="type153" maxSpeed="8.0"/>
	<vType id="type154" maxSpeed="9.594316406249998"/>
	<vType id="type155" maxSpeed="8.0"/>
	<vType id="type156" maxSpeed="0.024409599846555902"/>
	<vType id="type157" maxSpeed="8.0"/>
	<vType id="type158" maxSpeed="8.0"/>
	<vType id="type159" maxSpeed="0.206471779171399"/>
	<vType id="type160" maxSpeed="0.08838714212080033"/>
	<vType id="type161" maxSpeed="1.2710893312437115"/>
	<vType id="type162" maxSpeed="0.10474152266647387"/>
	<vType id="type163" maxSpeed="9.80667682926829"/>
	<vType id="type164" maxSpeed="1.4839002681983275"/>
	<vType id="type165" maxSpeed="0.8459787932100231"/>
	<vType id="type166" maxSpeed="0.1272991464346209"/>
	<vType id="type167" maxSpeed="1.9469008662175165"/>
	<vType id="type168" maxSpeed="0.4955907568447899"/>
	<vType id="type169" maxSpeed="2.0236931859946603"/>
	<vType id="type170" maxSpeed="0.20996044265398242"/>
	<vType id="type171" maxSpeed="8.0"/>
	<vType id="type172" maxSpeed="0.22669045630551968"/>
	<vType id="type173" maxSpeed="1.059178993348557"/>
	<vType id="type174" maxSpeed="8.83505395683453"/>
	<vType id="type175" maxSpeed="6.97821892393321"/>
	<vType id="type176" maxSpeed="9.987335375191424"/>
	<vType id="type177" maxSpeed="1.0"/>
	<vType id="type178" maxSpeed="1.1186001860561279"/>
	<vType id="type179" maxSpeed="1.2177691733532372"/>
	<vType id="type180" maxSpeed="1.001491171688911"/>
	<vType id="type181" maxSpeed="0.5616530677975197"/>
	<vType id="type182" maxSpeed="8.0"/>
	<vType id="type183" maxSpeed="0.4291807083906465"/>
	<vType id="type184" maxSpeed="1.1302384053680683"/>
	<vType id="type185" maxSpeed="8.0"/>
	<vType id="type186" maxSpeed="0.18386701714558812"/>
	<vType id="type187" maxSpeed="0.6678656185551601"/>
	<vType id="type188" maxSpeed="1.1060253516235456"/>
	<vType id="type189" maxSpeed="0.5035902199316833"/>
	<vType id="type190" maxSpeed="6.6129501915708815"/>
	<vType id="type191" maxSpeed="0.6129888380080137"/>
	<vType id="type192" maxSpeed="0.8233024927142573"/>
	<vType id="type193" maxSpeed="4.792493224932249"/>
	<vType id="type194" maxSpeed="1.0"/>
	<vType id="type195" maxSpeed="1.8724373116335153"/>
	<vType id="type196" maxSpeed="7.487321156773212"/>
	<vType id="type197" maxSpeed="8.0"/>
	<vType id="type198" maxSpeed="0.7266069647606381"/>
	<vType id="type199" maxSpeed="0.6551249416938761"/>
	<vType id="type200" maxSpeed="1.2779600475044917"/>
	<vType id="type201" maxSpeed="2.4463731955629826"/>
	<vType id="type202" maxSpeed="8.382747440273036"/>
	<vType id="type203" maxSpeed="0.9292419738406659"/>
	<vType id="type204" maxSpeed="0.8013069101742115"/>
	<vType id="type205" maxSpeed="1.2983283518360382"/>
	<vType id="type206" maxSpeed="2.033284550854203"/>
	<vType id="type207" maxSpeed="8.222551282051283"/>
	<vType id="type208" maxSpeed="1.7895383857358427"/>
	<vType id="type209" maxSpeed="8.0"/>
	<vType id="type210" maxSpeed="8.0"/>
	<vType id="type211" maxSpeed="0.5770907060642501"/>
	<vType id="type212" maxSpeed="1.7373280811431486"/>
	<vType id="type213" maxSpeed="1.0970081249999994"/>
	<vType id="type214" maxSpeed="1.7220742052076412"/>
	<vType id="type215" maxSpeed="0.5974645679167186"/>
	<vType id="type216" maxSpeed="1.3820621942946907"/>
	<vType id="type217" maxSpeed="1.7673083304394792"/>
	<vType id="type218" maxSpeed="1.5746182396606567"/>
	<vType id="type219" maxSpeed="2.1564047376882445"/>
	<vType id="type220" maxSpeed="2.3010769678169827"/>
	<vType id="type221" maxSpeed="8.0"/>
	<vType id="type222" maxSpeed="1.6684191683636598"/>
	<vType id="type223" maxSpeed="1.9797487715412834"/>
	<vType id="type224" maxSpeed="8.941804123711341"/>
	<vType id="type225" maxSpeed="1.5215881435257406"/>
	<vType id="type226" maxSpeed="2.465353382001419"/>
	<vType id="type227" maxSpeed="1.0235168961201502"/>
	<vType id="type228" maxSpeed="1.0"/>
	<vType id="type229" maxSpeed="2.3623835054275863"/>
	<vType id="type230" maxSpeed="1.7794989407135902"/>
	<vType id="type231" maxSpeed="0.11094176851186197"/>
	<vType id="type232" maxSpeed="0.4516564417177914"/>
	<vType id="type233" maxSpeed="0.9150818048941485"/>
	<vType id="type234" maxSpeed="0.7744380791912384"/>
	<vType id="type235" maxSpeed="8.67355"/>
	<vType id="type236" maxSpeed="2.3373210053740094"/>
	<vType id="type237" maxSpeed="6.5790845070422534"/>
	<vType id="type238" maxSpeed="1.7290706591199563"/>
	<vType id="type239" maxSpeed="0.9092297975487351"/>
	<vType id="type240" maxSpeed="0.9947699240986716"/>
	<vType id="type241" maxSpeed="1.8093627768865839"/>
	<vType id="type242" maxSpeed="8.0"/>
	<vType id="type243" maxSpeed="8.0"/>
	<vType id="type244" maxSpeed="1.784157939428248"/>
	<vType id="type245" maxSpeed="1.2195373124005813"/>
	<vType id="type246" maxSpeed="1.2261873761675632"/>
	<vType id="type247" maxSpeed="1.2753414676061177"/>
	<vType id="type248" maxSpeed="1.0"/>
	<vType id="type249" maxSpeed="1.0946542314897778"/>
	<vType id="type250" maxSpeed="8.0"/>
	<vType id="type251" maxSpeed="8.0"/>
	<vType id="type252" maxSpeed="2.425246504782929"/>
	<vType id="type253" maxSpeed="2.252671123604043"/>
	<vType id="type254" maxSpeed="9.691495327102801"/>
	<vType id="type255" maxSpeed="1.4456288725874233"/>
	<vType id="type256" maxSpeed="8.0"/>
	<vType id="type257" maxSpeed="1.4840163055138385"/>
	<vType id="type258" maxSpeed="2.2705768462348757"/>
	<vType id="type259" maxSpeed="8.0"/>
	<vType id="type260" maxSpeed="1.0"/>
	<vType id="type261" maxSpeed="0.7703867171080288"/>
	<vType id="type262" maxSpeed="8.0"/>
	<vType id="type263" maxSpeed="2.1469108350485158"/>
	<vType id="type264" maxSpeed="9.369847619047619"/>
	<vType id="type265" maxSpeed="9.009685628742515"/>
	<vType id="type266" maxSpeed="0.509588424437299"/>
	<vType id="type267" maxSpeed="2.4022033333333335"/>
	<vType id="type268" maxSpeed="0.6142284472349674"/>
	<vType id="type269" maxSpeed="1.8237150183150181"/>
	<vType id="type270" maxSpeed="1.533579400139502"/>
	<vType id="type271" maxSpeed="2.4130252552391185"/>
	<vType id="type272" maxSpeed="7.2279583333333335"/>
	<vType id="type273" maxSpeed="1.6758331108653366"/>
	<vType id="type274" maxSpeed="8.740729537366546"/>
	<vType id="type275" maxSpeed="1.6432052884797508"/>
	<vType id="type276" maxSpeed="0.40758878504672896"/>
	<vType id="type277" maxSpeed="1.7518100099032516"/>
	<vType id="type278" maxSpeed="2.265722651764526"/>
	<vType id="type279" maxSpeed="1.9610687289219677"/>
	<vType id="type280" maxSpeed="3.6123860329776916"/>
	<vType id="type281" maxSpeed="1.3090887391722807"/>
	<vType id="type282" maxSpeed="1.7419187817258879"/>
	<vType id="type283" maxSpeed="8.0"/>
	<vType id="type284" maxSpeed="9.90097812097812"/>
	<vType id="type285" maxSpeed="0.6482538496658783"/>
	<vType id="type286" maxSpeed="1.3499873150105715"/>
	<vType id="type287" maxSpeed="8.0"/>
	<vType id="type288" maxSpeed="0.3484366576819407"/>
	<vType id="type289" maxSpeed="0.6082105883343153"/>
	<vType id="type290" maxSpeed="9.662768532526476"/>
	<vType id="type291" maxSpeed="8.90857506361323"/>
	<vType id="type292" maxSpeed="9.295057971014494"/>
	<vType id="type293" maxSpeed="2.918058333333333"/>
	<vType id="type294" maxSpeed="7.734544025157232"/>
	<vType id="type295" maxSpeed="1.6412437279316114"/>
	<vType id="type296" maxSpeed="1.4741929243863654"/>
	<vType id="type297" maxSpeed="6.48616028708134"/>
	<vType id="type298" maxSpeed="9.253416666666665"/>
	<vType id="type299" maxSpeed="1.619896554636041"/>
	<vType id="type300" maxSpeed="1.354004928059137"/>
	<vType id="type301" maxSpeed="6.993073929961089"/>
	<vType id="type302" maxSpeed="7.822495126705653"/>
	<vType id="type303" maxSpeed="6.79819417475728"/>
	<vType id="type304" maxSpeed="1.5697607799347197"/>
	<vType id="type305" maxSpeed="7.245265486725662"/>
	<vType id="type306" maxSpeed="6.009387990762125"/>
	<vType id="type307" maxSpeed="8.0"/>
	<vType id="type308" maxSpeed="9.410517241379308"/>
	<vType id="type309" maxSpeed="0.5896432180675777"/>
	<vType id="type310" maxSpeed="9.446711538461537"/>
	<vType id="type311" maxSpeed="8.0"/>
	<vType id="type312" maxSpeed="4.043293160590539"/>
	<vType id="type313" maxSpeed="1.704097190653696"/>
	<vType id="type314" maxSpeed="1.5153612132352945"/>
	<vType id="type315" maxSpeed="1.0"/>
	<vType id="type316" maxSpeed="8.0"/>
	<vType id="type317" maxSpeed="3.162879161528977"/>
	<vType id="type318" maxSpeed="3.481893883566691"/>
	<vType id="type319" maxSpeed="8.130859504132232"/>
	<vType id="type320" maxSpeed="7.08814121037464"/>
	<vType id="type321" maxSpeed="7.118914616497829"/>
	<vType id="type322" maxSpeed="1.9122536418166236"/>
	<vType id="type323" maxSpeed="0.7195515415758331"/>
	<vType id="type324" maxSpeed="7.833713646532439"/>
	<vType id="type325" maxSpeed="1.4784335609972794"/>
	<vType id="type326" maxSpeed="2.0901951604159468"/>
	<vType id="type327" maxSpeed="1.5261886526252144"/>
	<vType id="type328" maxSpeed="0.4712975979772441"/>
	<vType id="type329" maxSpeed="8.615008756567425"/>
	<vType id="type330" maxSpeed="9.57968085106383"/>
	<vType id="type331" maxSpeed="2.322582657517155"/>
	<vType id="type332" maxSpeed="8.513500866551125"/>
	<vType id="type333" maxSpeed="2.143443811496634"/>
	<vType id="type334" maxSpeed="1.4377911825207097"/>
	<vType id="type335" maxSpeed="2.068314996477155"/>
	<vType id="type336" maxSpeed="2.4203624179431076"/>
	<vType id="type337" maxSpeed="1.8839215796264102"/>
	<vType id="type338" maxSpeed="4.556424242424242"/>
	<vType id="type339" maxSpeed="8.0"/>
	<vType id="type340" maxSpeed="8.0"/>
	<vType id="type341" maxSpeed="0.379899692237547"/>
	<vType id="type342" maxSpeed="8.0"/>
	<vType id="type343" maxSpeed="8.0"/>
	<vType id="type344" maxSpeed="1.0"/>
	<vType id="type345" maxSpeed="8.0"/>
	<vType id="type346" maxSpeed="8.411455479452053"/>
	<vType id="type347" maxSpeed="8.0"/>
	<vType id="type348" maxSpeed="7.6862031250000005"/>
	<vType id="type349" maxSpeed="0.9466509770360864"/>
	<vType id="type350" maxSpeed="8.0"/>
	<vType id="type351" maxSpeed="8.0"/>
	<vType id="type352" maxSpeed="2.434647226079482"/>
	<vType id="type353" maxSpeed="9.631941176470587"/>
	<vType id="type354" maxSpeed="8.624979166666666"/>
	<vType id="type355" maxSpeed="8.312803867403316"/>
	<vType id="type356" maxSpeed="8.0"/>
	<vType id="type357" maxSpeed="8.226628440366971"/>
	<vType id="type358" maxSpeed="8.846388415672912"/>
	<vType id="type359" maxSpeed="0.5249347698622104"/>
	<vType id="type360" maxSpeed="8.0"/>
	<vType id="type361" maxSpeed="7.181710526315788"/>
	<vType id="type362" maxSpeed="7.746724409448819"/>
	<vType id="type363" maxSpeed="0.20985896461447515"/>
	<vType id="type364" maxSpeed="8.239815745393635"/>
	<vType id="type365" maxSpeed="2.7208505018489175"/>
	<vType id="type366" maxSpeed="8.221374407582939"/>
	<vType id="type367" maxSpeed="8.897545219638241"/>
	<vType id="type368" maxSpeed="6.841682892906815"/>
	<vType id="type369" maxSpeed="8.0"/>
	<vType id="type370" maxSpeed="1.3646457867263238"/>
	<vType id="type371" maxSpeed="7.844154078549847"/>
	<vType id="type372" maxSpeed="8.0"/>
	<vType id="type373" maxSpeed="2.0603434568293846"/>
	<vType id="type374" maxSpeed="8.0"/>
	<vType id="type375" maxSpeed="8.0"/>
	<vType id="type376" maxSpeed="3.5083890196078427"/>
	<vType id="type377" maxSpeed="2.1748582995951415"/>
	<vType id="type378" maxSpeed="2.661479421579532"/>
	<vType id="type379" maxSpeed="8.0"/>
	<vType id="type380" maxSpeed="4.483609544468546"/>
	<vType id="type381" maxSpeed="2.3565739801095997"/>
	<vType id="type382" maxSpeed="8.0"/>
	<vType id="type383" maxSpeed="9.046574585635357"/>
	<vType id="type384" maxSpeed="2.3972655524605386"/>
	<vType id="type385" maxSpeed="8.0"/>
	<vType id="type386" maxSpeed="1.0"/>
	<vType id="type387" maxSpeed="1.807444809769845"/>
	<vType id="type388" maxSpeed="8.013523654159869"/>
	<vType id="type389" maxSpeed="9.48428093645485"/>
	<vType id="type390" maxSpeed="8.0"/>
	<vType id="type391" maxSpeed="8.2425873015873"/>
	<vType id="type392" maxSpeed="7.292672233820459"/>
	<vType id="type393" maxSpeed="8.0"/>
	<vType id="type394" maxSpeed="8.397076923076922"/>
	<vType id="type395" maxSpeed="5.09573651452282"/>
	<vType id="type396" maxSpeed="8.0"/>
	<vType id="type397" maxSpeed="8.0"/>
	<vType id="type398" maxSpeed="0.10736770954036308"/>
	<vType id="type399" maxSpeed="7.16261224489796"/>
	<vType id="type400" maxSpeed="7.149846153846153"/>
	<vType id="type401" maxSpeed="1.3077509293680298"/>
	<vType id="type402" maxSpeed="9.143031746031747"/>
	<vType id="type403" maxSpeed="8.295255591054312"/>
	<vType id="type404" maxSpeed="0.09231305864399389"/>
	<vType id="type405" maxSpeed="8.0"/>
	<vType id="type406" maxSpeed="0.997368986831497"/>
	<vType id="type407" maxSpeed="1.8238531468531465"/>
	<vType id="type408" maxSpeed="8.0"/>
	<vType id="type409" maxSpeed="1.7501694473409801"/>
	<vType id="type410" maxSpeed="8.340050933786076"/>
	<vType id="type411" maxSpeed="8.0"/>
	<vType id="type412" maxSpeed="8.850972972972972"/>
	<vType id="type413" maxSpeed="8.0"/>
	<vType id="type414" maxSpeed="8.0"/>
	<vType id="type415" maxSpeed="8.941393034825872"/>
	<vType id="type416" maxSpeed="1.0"/>
	<vType id="type417" maxSpeed="1.7293313069908816"/>
	<vType id="type418" maxSpeed="5.852236111111111"/>
	<vType id="type419" maxSpeed="8.35423469387755"/>
	<vType id="type420" maxSpeed="8.460319410319409"/>
	<vType id="type421" maxSpeed="8.0"/>
	<vType id="type422" maxSpeed="9.984329268292681"/>
	<vType id="type423" maxSpeed="8.0"/>
	<vType id="type424" maxSpeed="1.0"/>
	<vehicle id="227228010" type="type0" depart="0" departLane="free" departSpeed="max" departPos="last">
		<route id="227228010" edges="-360632516"/>
	</vehicle>
	<vehicle id="244810804" type="type1" depart="2" departLane="free" departSpeed="max" departPos="last">
		<route id="244810804" edges="-22103866#1 22103866#1 -22103866#1 22103866#1 -22103866#1 22103866#1 -22103866#1 -22103865 -29473027 -12869938 593311097#1 -593311097#1 593311097#1 593311097#4 -593311097#4 593311097#4 17166659#0 17166659#1 -17166659#1 17166659#1 -29406836#1 29406836#1 -29406836#1 -29406836#0 29406836#0 -29406836#0 -17162470#1 -17162470#0 17162470#0 -112260341 112260341 -112260341 -29471871 -23291087#2 -23291087#1 23294019#0 23294019#1 23294019#2 -29472010#1 -29474883 -29474838#3 -29474838#2 gneE48 29408185#0 29408185#1 -29407365#1 gneE34 -17163948#0 -195582876 -17162472#5 -17162469#2 -17162469#1 -17162469#0 17162469#0 -17162469#0 -29410858 29410858 -29410858 22103865 22103866#1 -22103866#1 -22103865 -29473027 -12869938 593311097#1 593311097#4 -593311097#4 593311097#4 30123973#4 30123973#5 195582876 17163948#0 23269770#0 -23269770#0 -17163948#0 195582877#0 -23269771 23269771 -195582877#0 -195582876 -17162472#5 17162472#5 -17162472#5 -17162472#4 -17162472#2 -15498784#1 -15498784#0 15498784#0 -15498784#0 29473019#2 29473019#3 29473019#4 29473019#5 29473019#6 593311097#0 12869938 29473027 22103865 22103866#1 -22103866#1 -22103865 -29473027 -12869938 593311097#1 -593311097#1 593311097#1 593311097#4 -593311097#4 17162469#1 -17166660 30123973#5 195582876 17163948#0 gneE33 -29407577 -28344864 29408185#1 -29407365#1 -29407577 -28344864 28344864 29407577 -29407577 29407577 gneE34 23269770#0 23269771 -23269771 23269771 -195582877#0 -195582876 -17162472#5 -17162469#2 -17162469#1 17162469#1 -17162469#1 -17162469#0 17162469#0 -17162469#0 -29410858 22103865 22103866#1 -22103866#1 -22103865 -29473027 29473027 -29473027 -12869938 593311097#1 593311097#4 30123973#4 30123973#5 29404935#0 -29404935#0 29404935#0 17162470#0 -112260341 -29471871 29471871 -29471871 -23291087#2 -23291087#1"/>
	</vehicle>
	<vehicle id="244750256" type="type2" depart="2" departLane="free" departSpeed="max" departPos="last">
		<route id="244750256" edges="58985549 -58985549 360632518#1 360632520 -360632520 360632520 -360632524#1 -360632526 -33914156 -33912317 -gneE27 29473019#0 29473019#1 29473019#2 29473019#3 29473019#4 29473019#5 29473019#6 -12869939#1 -12869939#0 17162472#4 -17162472#4 17162472#4 17162472#5 -17162472#5 17162472#5 195582876 17163948#0 gneE33 29407365#1 29407365#2 29407365#3 -29407365#3 29407365#3 29472010#0 -29474883 29474883 29472010#1 29474860#0 29474860#1 -360632524#4 -360632524#3 -360632524#2 -360632520 -360632518#1 58985549 -58985549 360632518#1 360632520 360632524#2 360632524#3 360632524#4 -29474860#1 -29474860#0 -29472010#1 -29474883 -29474838#3 -29474838#2 gneE50 gneE49 29474838#2 29474838#3 29474883 -29474883 29474883 29472010#1 -23294019#2 -23294019#1 -23294019#0 -29404961 -29404935#0 -30123973#5 30123973#5 -17162472#5 -17162472#4 -17162472#2 17162472#2 -17162472#2 -17162472#1 17162472#1 -17162472#1 -17162472#0 17162472#0 -17162472#0 29473678#2 gneE43 58985549 -58985549 58985549 -58985549 58985549 -58985549 360632518#1 360632520 360632524#2 360632524#3 360632524#4 -29474860#1 -29474860#0 -29472010#1 -29474883 -29474838#3 -29474838#2 gneE50 gneE49 29474838#2 29474838#3 29474883 -29472010#0 -29407365#3 -29407365#2 -29407365#1 gneE34 gneE33 gneE34 -17163948#0 17163948#0 -17163948#0 -195582876 -17162472#5 17162472#5 -17162472#5 -17162472#4 17162472#4 -17162472#4 12869939#0 479495084#2 601083337 601083336#0 15498784#1 -17162472#1 -17162472#0 29473678#2 gneE43 58985549 -58985549 58985549 -58985549 360632518#1 360632520 360632524#2 360632524#3 360632524#4 -29474860#1 -29474860#0 -29472010#1 -29474883 -29474838#3 -29474838#2 gneE50 gneE49 29474838#2 29472797 68237455 68237456 -29407365#2 -29407365#1 gneE34 -17163948#0 -195582876 195582876 -195582876 -17162472#5 -17162472#4 17162472#4 -17162472#4 12869939#0 479495084#2 -479495084#2 479495084#2 601083337 601083336#0 601083336#1 29473678#1 29473678#2 -29473678#2 29473678#2 gneE43 58985549 -58985549 360632518#1 360632520 360632524#2 360632524#3 360632524#4 -29474860#1 -29474860#0 -29472010#1 -29474883 -29474838#3 -29474838#2 gneE50 gneE49 29474838#2 29474838#3 29474883 -29472010#0 -29407365#3 -29407365#2 -29407365#1 gneE34 gneE33 gneE34 -17163948#0 -195582876 -17162472#5 17162472#5 -17162472#5 -17162472#4 17162472#4 -17162472#4 12869939#0 479495084#2"/>
	</vehicle>
	<vehicle id="244670037" type="type3" depart="3" departLane="free" departSpeed="max" departPos="last">
		<route id="244670037" edges="23291087#2"/>
	</vehicle>
	<vehicle id="270327000" type="type4" depart="6" departLane="free" departSpeed="max" departPos="last">
		<route id="270327000" edges="-284441179 29396393 284441178 -195582885#0 360632524#6 -360632524#6 -360632524#5 -360632524#4 -360632524#3 -360632524#2 -360632524#1 -360632524#0"/>
	</vehicle>
	<vehicle id="244870757" type="type5" depart="26" departLane="free" departSpeed="max" departPos="last">
		<route id="244870757" edges="-33914156 -33912317 -29474370#1 29474370#1 33912317 33914156 -33914156 -33912317 -29474370#1 29474370#1 33912317 33914156 -33914156 -33912317 -gneE27 29473019#0 29473019#1 29473019#2 29473019#3 29473019#4 29473019#5 29473019#6 593311097#0 -593311097#0 593311097#0 593311097#1 593311097#4 30123973#4 30123973#5 29404935#0 -29404935#0 29404935#0 29404961 -29404961 29404961 23294019#0 23294019#1 23294019#2 29474860#0 29474860#1 -360632524#4 -360632524#3 -360632524#2 -360632524#1 -360632526 -33914156 -33912317 -gneE27 gneE27 -gneE27 29473019#0 29473019#1 29473019#2 29473019#3 29473019#4 29473019#5 29473019#6 593311097#0 593311097#1 -593311097#1 593311097#1 593311097#4 -593311097#4 17162469#1 -17166660 30123973#5 29404935#0 -29404935#0 29404935#0 29404961 -29404961 29404961 23294019#0 23294019#1 23294019#2 29474860#0 29474860#1 -360632524#4 -360632524#3 360632524#3 -360632524#3 -360632524#2 -360632524#1 -360632526 -33914156 -33912317 -gneE27 29473019#0 29473019#1 29473019#2 29473019#3 29473019#4 29473019#5 29473019#6 593311097#0 593311097#1 593311097#4 -593311097#4 17162469#1 17162469#2 17162472#5 29404935#0 -29404935#0 29404935#0 29404961 -29404961 29404961 23294019#0 23294019#1 23294019#2 29474860#0 29474860#1 -360632524#4 -360632524#3 -360632524#2 -360632524#1 360632524#1 -360632524#1 -360632526 -33914156 -33912317 -gneE27 gneE27 -gneE27 29473019#0 29473019#1 29473019#2 29473019#3 29473019#4 29473019#5 29473019#6 593311097#0 -593311097#0 593311097#0 593311097#1 593311097#4 30123973#4 30123973#5 29404935#0 29404961 23294019#0 23294019#1 23294019#2 -29472010#1 -29474883 -29474838#3 -29474838#2 gneE50 gneE49 29474838#2 29474838#3 29474883 29472010#1 29474860#0 29474860#1 -360632524#4 -360632524#3 -360632524#2 -360632520 -360632518#1 360632518#1 360632520 -360632524#1 -360632526 -33914156 -33912317 33912317 -33912317 -gneE27 29473019#0 29473019#1 29473019#2 29473019#3 29473019#4 29473019#5 29473019#6 593311097#0 593311097#1 593311097#4 -593311097#4 17162469#1 17162469#2 17162472#5 29404935#0 29404961 -29404961 29404961 23294019#0 23294019#1 23294019#2 29474860#0 29474860#1 -360632524#4 -360632524#3 -360632524#2 -360632524#1 -360632526 -33914156 -33912317 -gneE27 gneE27 -gneE27 29473019#0 29473019#1 29473019#2 29473019#3"/>
	</vehicle>
	<vehicle id="244780635" type="type6" depart="28" departLane="free" departSpeed="max" departPos="last">