<?xml version="1.0" encoding="UTF-8"?>
<routes xmlns:xsi="http://www.w3.org/2001/XMLSchema-instance" xsi:noNamespaceSchemaLocation="http://sumo.sf.net/xsd/routes_file.xsd">
	<vType id="type0" maxSpeed="1.2621125143513205"/>
	<vType id="type1" maxSpeed="0.28217014572666405"/>
	<vType id="type2" maxSpeed="1.0347169074580242"/>
	<vType id="type3" maxSpeed="0.29107979502196196"/>
	<vType id="type4" maxSpeed="3.223341887653265"/>
	<vType id="type5" maxSpeed="1.2460187021819213"/>
	<vType id="type6" maxSpeed="1.1719278779472955"/>
	<vType id="type7" maxSpeed="0.3083481969755719"/>
	<vType id="type8" maxSpeed="0.04097802197802198"/>
	<vType id="type9" maxSpeed="0.13290358330254895"/>
	<vType id="type10" maxSpeed="0.13802557352388115"/>
	<vType id="type11" maxSpeed="7.694655737704918"/>
	<vType id="type12" maxSpeed="0.1520864106351551"/>
	<vType id="type13" maxSpeed="0.0675090645395214"/>
	<vType id="type14" maxSpeed="0.06597009202453988"/>
	<vType id="type15" maxSpeed="1.0"/>
	<vType id="type16" maxSpeed="0.36484292125663"/>
	<vType id="type17" maxSpeed="0.3555749377002492"/>
	<vType id="type18" maxSpeed="1.0631519756838905"/>
	<vType id="type19" maxSpeed="0.8254165052305308"/>
	<vType id="type20" maxSpeed="0.13455686274509804"/>
	<vType id="type21" maxSpeed="0.12366822429906542"/>
	<vType id="type22" maxSpeed="2.3695066107707192"/>
	<vType id="type23" maxSpeed="1.1597754537065519"/>
	<vType id="type24" maxSpeed="0.20590740740740743"/>
	<vType id="type25" maxSpeed="0.12405445729205519"/>
	<vType id="type26" maxSpeed="0.9206891441274546"/>
	<vType id="type27" maxSpeed="1.437194216490817"/>
	<vType id="type28" maxSpeed="0.029563517915309447"/>
	<vType id="type29" maxSpeed="0.1166491412548195"/>
	<vType id="type30" maxSpeed="0.16007323026851097"/>
	<vType id="type31" maxSpeed="0.15140676567656766"/>
	<vType id="type32" maxSpeed="0.2012853005068791"/>
	<vType id="type33" maxSpeed="1.486929906542056"/>
	<vType id="type34" maxSpeed="1.6083726708074535"/>
	<vType id="type35" maxSpeed="0.5818244616009751"/>
	<vType id="type36" maxSpeed="0.1287644656228727"/>
	<vType id="type37" maxSpeed="0.043043478260869565"/>
	<vType id="type38" maxSpeed="0.11980945659844743"/>
	<vType id="type39" maxSpeed="0.13467782128871483"/>
	<vType id="type40" maxSpeed="0.28899698340874813"/>
	<vType id="type41" maxSpeed="0.04844919786096257"/>
	<vType id="type42" maxSpeed="0.26426779786056803"/>
	<vType id="type43" maxSpeed="0.3143201581027668"/>
	<vType id="type44" maxSpeed="0.08871342967923863"/>
	<vType id="type45" maxSpeed="1.0"/>
	<vType id="type46" maxSpeed="0.28147040302267"/>
	<vType id="type47" maxSpeed="0.021672528331379445"/>
	<vType id="type48" maxSpeed="0.3246449704142012"/>
	<vType id="type49" maxSpeed="0.48582868525896417"/>
	<vType id="type50" maxSpeed="2.9814442190669372"/>
	<vType id="type51" maxSpeed="0.29291030160595377"/>
	<vType id="type52" maxSpeed="0.12778136345300523"/>
	<vType id="type53" maxSpeed="0.2862598992080634"/>
	<vType id="type54" maxSpeed="1.1063681368136815"/>
	<vType id="type55" maxSpeed="0.19093648585999073"/>
	<vType id="type56" maxSpeed="0.06871006389776359"/>
	<vType id="type57" maxSpeed="0.13844209732176538"/>
	<vType id="type58" maxSpeed="1.0"/>
	<vType id="type59" maxSpeed="0.2562213976499691"/>
	<vType id="type60" maxSpeed="0.12338007910823445"/>
	<vType id="type61" maxSpeed="0.21887795275590552"/>
	<vType id="type62" maxSpeed="0.1931052448766933"/>
	<vType id="type63" maxSpeed="0.31825862752875844"/>
	<vType id="type64" maxSpeed="0.29244660921693516"/>
	<vType id="type65" maxSpeed="0.7978703286807745"/>
	<vType id="type66" maxSpeed="0.15302962962962963"/>
	<vType id="type67" maxSpeed="0.44298299319727885"/>
	<vType id="type68" maxSpeed="1.0"/>
	<vType id="type69" maxSpeed="0.07217503692762185"/>
	<vType id="type70" maxSpeed="0.05196231052847194"/>
	<vType id="type71" maxSpeed="0.14270463975858166"/>
	<vType id="type72" maxSpeed="0.2963931827189853"/>
	<vType id="type73" maxSpeed="0.14067075507857416"/>
	<vType id="type74" maxSpeed="0.07071745562130177"/>
	<vType id="type75" maxSpeed="0.4340229885057471"/>
	<vType id="type76" maxSpeed="0.09331850203930293"/>
	<vType id="type77" maxSpeed="0.3710150181253236"/>
	<vType id="type78" maxSpeed="0.1255530388825972"/>
	<vType id="type79" maxSpeed="0.33633042096902305"/>
	<vType id="type80" maxSpeed="0.20789177001127399"/>
	<vType id="type81" maxSpeed="0.07217503692762185"/>
	<vType id="type82" maxSpeed="0.05302158273381295"/>
	<vType id="type83" maxSpeed="0.15699507389162562"/>
	<vType id="type84" maxSpeed="0.5187762490948588"/>
	<vType id="type85" maxSpeed="0.3311962962962963"/>
	<vType id="type86" maxSpeed="0.0666860465116279"/>
	<vType id="type87" maxSpeed="0.30822868217054267"/>
	<vType id="type88" maxSpeed="9.065285326086958"/>
	<vType id="type89" maxSpeed="0.4936959818043972"/>
	<vType id="type90" maxSpeed="0.2912930402930403"/>
	<vType id="type91" maxSpeed="0.09529723589549413"/>
	<vType id="type92" maxSpeed="0.13276064610866373"/>
	<vType id="type93" maxSpeed="0.2951285714285714"/>
	<vType id="type94" maxSpeed="0.5966972477064221"/>
	<vType id="type95" maxSpeed="0.07298473282442748"/>
	<vType id="type96" maxSpeed="0.25495867768595043"/>
	<vType id="type97" maxSpeed="0.3027141225732775"/>
	<vType id="type98" maxSpeed="1.0"/>
	<vType id="type99" maxSpeed="1.0"/>
	<vType id="type100" maxSpeed="0.28061157024793393"/>
	<vType id="type101" maxSpeed="0.12219285714285714"/>
	<vType id="type102" maxSpeed="0.1630443388756928"/>
	<vType id="type103" maxSpeed="1.0448406226834692"/>
	<vType id="type104" maxSpeed="1.0693577296489918"/>
	<vType id="type105" maxSpeed="0.1012714228776405"/>
	<vType id="type106" maxSpeed="0.5188464211257818"/>
	<vType id="type107" maxSpeed="6.40578947368421"/>
	<vType id="type108" maxSpeed="0.22842719780219778"/>
	<vType id="type109" maxSpeed="0.13264166001596167"/>
	<vType id="type110" maxSpeed="1.9666800000000002"/>
	<vType id="type111" maxSpeed="1.464175104228708"/>
	<vType id="type112" maxSpeed="0.5678095238095239"/>
	<vType id="type113" maxSpeed="1.0"/>
	<vType id="type114" maxSpeed="0.5892828999211978"/>
	<vType id="type115" maxSpeed="0.1322444273635665"/>
	<vType id="type116" maxSpeed="0.14772875816993464"/>
	<vType id="type117" maxSpeed="0.08130087209302327"/>
	<vType id="type118" maxSpeed="0.580036469730124"/>
	<vType id="type119" maxSpeed="0.16678595096090126"/>
	<vType id="type120" maxSpeed="0.5768357487922705"/>
	<vType id="type121" maxSpeed="1.0"/>
	<vType id="type122" maxSpeed="1.0162313697657912"/>
	<vType id="type123" maxSpeed="0.5113938527519657"/>
	<vType id="type124" maxSpeed="0.31932279909706546"/>
	<vType id="type125" maxSpeed="0.03941719971570718"/>
	<vType id="type126" maxSpeed="1.8020752182672934"/>
	<vType id="type127" maxSpeed="0.10331391114348143"/>
	<vType id="type128" maxSpeed="0.12775952203136667"/>
	<vType id="type129" maxSpeed="1.0"/>
	<vType id="type130" maxSpeed="0.5260588235294118"/>
	<vType id="type131" maxSpeed="1.0"/>
	<vType id="type132" maxSpeed="0.1814864864864865"/>
	<vType id="type133" maxSpeed="0.2312865090403338"/>
	<vType id="type134" maxSpeed="1.0"/>
	<vType id="type135" maxSpeed="0.04358108108108108"/>
	<vType id="type136" maxSpeed="0.26867496339677893"/>
	<vType id="type137" maxSpeed="0.9444307469180565"/>
	<vType id="type138" maxSpeed="1.0"/>
	<vType id="type139" maxSpeed="0.13525951557093424"/>
	<vType id="type140" maxSpeed="1.0"/>
	<vType id="type141" maxSpeed="1.1022268907563024"/>
	<vType id="type142" maxSpeed="8.545369458128079"/>
	<vType id="type143" maxSpeed="1.0"/>
	<vType id="type144" maxSpeed="7.647418879056046"/>
	<vType id="type145" maxSpeed="8.14641791044776"/>
	<vType id="type146" maxSpeed="1.0"/>
	<vType id="type147" maxSpeed="1.0"/>
	<vType id="type148" maxSpeed="6.173049327354261"/>
	<vType id="type149" maxSpeed="8.387620192307692"/>
	<vType id="type150" maxSpeed="1.0"/>
	<vType id="type151" maxSpeed="1.0"/>
	<vType id="type152" maxSpeed="4.744329896907217"/>
	<vType id="type153" maxSpeed="1.0"/>
	<vehicle id="244750687" type="type0" depart="0" departLane="free" departSpeed="max" departPos="last">
		<route id="244750687" edges="-360632524#4 360632524#4 -360632524#4 360632524#4 -360632524#4 360632524#4 -360632524#4 360632524#4"/>
	</vehicle>
	<vehicle id="244810803" type="type1" depart="1" departLane="free" departSpeed="max" departPos="last">
		<route id="244810803" edges="-22103866#1"/>
	</vehicle>
	<vehicle id="244820333" type="type2" depart="3" departLane="free" departSpeed="max" departPos="last">
		<route id="244820333" edges="92323947#1 -92323947#1 92323947#1"/>
	</vehicle>
	<vehicle id="244780654" type="type3" depart="8" departLane="free" departSpeed="max" departPos="last">
		<route id="244780654" edges="-29472669"/>
	</vehicle>
	<vehicle id="244710944" type="type4" depart="8" departLane="free" departSpeed="max" departPos="last">
		<route id="244710944" edges="-360632524#0 360632524#0 360632524#1 360632524#2 360632524#3 360632524#4 360632524#5 360632524#6 -360632524#6 360632524#6"/>
	</vehicle>
	<vehicle id="244750685" type="type5" depart="8" departLane="free" departSpeed="max" departPos="last">
		<route id="244750685" edges="360632524#4 -360632524#4 360632524#4 -360632524#4 360632524#4 -360632524#4 360632524#4 -360632524#4"/>
	</vehicle>
	<vehicle id="244810681" type="type6" depart="12" departLane="free" departSpeed="max" departPos="last">
		<route id="244810681" edges="360632524#0 360632524#1 -360632520 360632520 360632524#2 360632524#3 360632524#4"/>
	</vehicle>
	<vehicle id="244780656" type="type7" depart="17" departLane="free" departSpeed="max" departPos="last">
		<route id="244780656" edges="-29472669"/>
	</vehicle>
	<vehicle id="244780652" type="type8" depart="23" departLane="free" departSpeed="max" departPos="last">
		<route id="244780652" edges="-195582877#2"/>
	</vehicle>
	<vehicle id="244820044" type="type9" depart="34" departLane="free" departSpeed="max" departPos="last">
		<route id="244820044" edges="-30010643#0"/>
	</vehicle>
	<vehicle id="244780640" type="type10" depart="39" departLane="free" departSpeed="max" departPos="last">
		<route id="244780640" edges="-29472670 29472670"/>
	</vehicle>
	<vehicle id="244670671" type="type11" depart="41" departLane="free" departSpeed="max" departPos="last">
		<route id="244670671" edges="360632520 360632524#2 360632524#3 360632524#4 -360632524#4 360632524#4 360632524#5 360632524#6"/>
	</vehicle>
	<vehicle id="244780711" type="type12" depart="59" departLane="free" departSpeed="max" departPos="last">
		<route id="244780711" edges="68237456"/>
	</vehicle>
	<vehicle id="244780637" type="type13" depart="75" departLane="free" departSpeed="max" departPos="last">
		<route id="244780637" edges="-29472670"/>
	</vehicle>
	<vehicle id="244750240" type="type14" depart="84" departLane="free" departSpeed="max" departPos="last">
		<route id="244750240" edges="58985549"/>
	</vehicle>
	<vehicle id="205501290" type="type15" depart="84" departLane="free" departSpeed="max" departPos="last">
		<route id="205501290" edges="360632524#6"/>
	</vehicle>
	<vehicle id="244830009" type="type16" depart="85" departLane="free" departSpeed="max" departPos="last">
		<route id="244830009" edges="-92323947#1"/>
	</vehicle>
	<vehicle id="244770759" type="type17" depart="109" departLane="free" departSpeed="max" departPos="last">
		<route id="244770759" edges="-29407365#2 29407365#2 -68237456 68237456"/>
	</vehicle>
	<vehicle id="244670766" type="type18" depart="118" departLane="free" departSpeed="max" departPos="last">
		<route id="244670766" edges="360632524#3 -360632516 360632516 -360632524#3 360632524#3 -360632524#3 360632524#3 -360632516 360632516 -360632524#3 360632524#3 -360632516 360632516"/>
	</vehicle>
	<vehicle id="244710831" type="type19" depart="122" departLane="free" departSpeed="max" departPos="last">
		<route id="244710831" edges="-17162472#2 17162472#2 -17162472#2"/>
	</vehicle>
	<vehicle id="244710267" type="type20" depart="139" departLane="free" departSpeed="max" departPos="last">
		<route id="244710267" edges="-58985549 58985549"/>
	</vehicle>
	<vehicle id="265676630" type="type21" depart="170" departLane="free" departSpeed="max" departPos="last">
		<route id="265676630" edges="-360632516"/>
	</vehicle>
	<vehicle id="244750689" type="type22" depart="180" departLane="free" departSpeed="max" departPos="last">
		<route id="244750689" edges="-360632524#6 -360632524#5 -360632524#4 -360632524#3 -360632522 360632522 360632524#3 -360632524#3 360632524#3 -360632524#3 -360632524#2 -360632524#1 -360632524#0 360632524#0 360632524#1 -360632520"/>
	</vehicle>
	<vehicle id="244300678" type="type23" depart="183" departLane="free" departSpeed="max" departPos="last">
		<route id="244300678" edges="360632524#3 -360632524#3 360632524#3 -360632516 360632516 -360632524#3 360632524#3 -360632516 360632516 -360632524#3 360632524#3 -360632524#3 360632524#3 -360632516 360632516"/>
	</vehicle>
	<vehicle id="269057389" type="type24" depart="195" departLane="free" departSpeed="max" departPos="last">
		<route id="269057389" edges="360632524#4"/>
	</vehicle>
	<vehicle id="244710543" type="type25" depart="214" departLane="free" departSpeed="max" departPos="last">
		<route id="244710543" edges="388339526"/>
	</vehicle>
	<vehicle id="244100224" type="type26" depart="232" departLane="free" departSpeed="max" departPos="last">
		<route id="244100224" edges="360632524#6"/>
	</vehicle>
	<vehicle id="244110862" type="type27" depart="232" departLane="free" departSpeed="max" departPos="last">
		<route id="244110862" edges="29473090 -29473090 29473090"/>
	</vehicle>
	<vehicle id="244810915" type="type28" depart="234" departLane="free" departSpeed="max" departPos="last">
		<route id="244810915" edges="-15498366"/>
	</vehicle>
	<vehicle id="244820278" type="type29" depart="235" departLane="free" departSpeed="max" departPos="last">
		<route id="244820278" edges="29473019#3"/>
	</vehicle>
	<vehicle id="244780123" type="type30" depart="240" departLane="free" departSpeed="max" departPos="last">
		<route id="244780123" edges="-68237456"/>
	</vehicle>
	<vehicle id="244780648" type="type31" depart="240" departLane="free" departSpeed="max" departPos="last">
		<route id="244780648" edges="-29472670 29472670"/>
	</vehicle>
	<vehicle id="211593740" type="type32" depart="256" departLane="free" departSpeed="max" departPos="last">
		<route id="211593740" edges="360632524#4"/>
	</vehicle>
	<vehicle id="244620954" type="type33" depart="259" departLane="free" departSpeed="max" departPos="last">
		<route id="244620954" edges="360632524#0 360632524#1 360632524#2 360632524#3 360632524#4 360632524#5 195582885#0"/>
	</vehicle>
	<vehicle id="244750690" type="type34" depart="289" departLane="free" departSpeed="max" departPos="last">
		<route id="244750690" edges="360632516 -360632524#3 360632524#3 -360632516 360632516 -360632524#3 360632524#3 -360632516 360632516 -360632524#3 360632524#3 -360632516 360632516 -360632524#3 360632524#3 -360632516 360632516 -360632524#3 360632524#3"/>
	</vehicle>
	<vehicle id="244250731" type="type35" depart="302" departLane="free" departSpeed="max" departPos="last">
		<route id="244250731" edges="22103866#1 -22103866#1"/>
	</vehicle>
	<vehicle id="244780324" type="type36" depart="339" departLane="free" departSpeed="max" departPos="last">
		<route id="244780324" edges="30010643#1"/>
	</vehicle>
	<vehicle id="244780636" type="type37" depart="341" departLane="free" departSpeed="max" departPos="last">
		<route id="244780636" edges="-195582877#2"/>
	</vehicle>
	<vehicle id="244780372" type="type38" depart="341" departLane="free" departSpeed="max" departPos="last">
		<route id="244780372" edges="gneE48"/>
	</vehicle>
	<vehicle id="244780322" type="type39" depart="341" departLane="free" departSpeed="max" departPos="last">
		<route id="244780322" edges="30010643#1"/>
	</vehicle>
	<vehicle id="244890266" type="type40" depart="343" departLane="free" departSpeed="max" departPos="last">
		<route id="244890266" edges="-33914156 33914156 360632526 -360632526"/>
	</vehicle>
	<vehicle id="244660894" type="type41" depart="354" departLane="free" departSpeed="max" departPos="last">
		<route id="244660894" edges="29472010#0"/>
	</vehicle>
	<vehicle id="244250734" type="type42" depart="361" departLane="free" departSpeed="max" departPos="last">
		<route id="244250734" edges="-22103866#1"/>
	</vehicle>
	<vehicle id="244780655" type="type43" depart="365" departLane="free" departSpeed="max" departPos="last">
		<route id="244780655" edges="-29472669"/>
	</vehicle>
	<vehicle id="244850451" type="type44" depart="390" departLane="free" departSpeed="max" departPos="last">
		<route id="244850451" edges="-360632526"/>
	</vehicle>
	<vehicle id="244130784" type="type45" depart="392" departLane="free" departSpeed="max" departPos="last">
		<route id="244130784" edges="195582880#1"/>
	</vehicle>
	<vehicle id="244660507" type="type46" depart="408" departLane="free" departSpeed="max" departPos="last">
		<route id="244660507" edges="15498075 -15498075"/>
	</vehicle>
	<vehicle id="244830882" type="type47" depart="411" departLane="free" departSpeed="max" departPos="last">
		<route id="244830882" edges="-195582877#0"/>
	</vehicle>
	<vehicle id="244780710" type="type48" depart="419" departLane="free" departSpeed="max" departPos="last">
		<route id="244780710" edges="92323947#1"/>
	</vehicle>
	<vehicle id="244250733" type="type49" depart="434" departLane="free" departSpeed="max" departPos="last">
		<route id="244250733" edges="29473090"/>
	</vehicle>
	<vehicle id="244750692" type="type50" depart="443" departLane="free" departSpeed="max" departPos="last">
		<route id="244750692" edges="360632524#0 360632524#1 -360632520 360632520 360632524#2 360632524#3 -360632524#3 -360632524#2 -360632524#1 -360632524#0 360632524#0 360632524#1 -360632520 360632520 360632524#2 360632524#3 -360632524#3 -360632524#2 -360632524#1 -360632524#0"/>
	</vehicle>
	<vehicle id="244050325" type="type51" depart="467" departLane="free" departSpeed="max" departPos="last">
		<route id="244050325" edges="195582885#0"/>
	</vehicle>
	<vehicle id="244130609" type="type52" depart="467" departLane="free" departSpeed="max" departPos="last">
		<route id="244130609" edges="29474091"/>
	</vehicle>
	<vehicle id="244260496" type="type53" depart="473" departLane="free" departSpeed="max" departPos="last">
		<route id="244260496" edges="-29472669"/>
	</vehicle>
	<vehicle id="244110865" type="type54" depart="493" departLane="free" departSpeed="max" departPos="last">
		<route id="244110865" edges="29473090 -29473090"/>
	</vehicle>
	<vehicle id="244270394" type="type55" depart="493" departLane="free" departSpeed="max" departPos="last">
		<route id="244270394" edges="68237456"/>
	</vehicle>
	<vehicle id="244750256" type="type56" depart="493" departLane="free" departSpeed="max" departPos="last">
		<route id="244750256" edges="58985549"/>
	</vehicle>
	<vehicle id="244780649" type="type57" depart="537" departLane="free" departSpeed="max" departPos="last">
		<route id="244780649" edges="-29472670 29472670"/>
	</vehicle>
	<vehicle id="244780034" type="type58" depart="544" departLane="free" departSpeed="max" departPos="last">
		<route id="244780034" edges="29473628#1"/>
	</vehicle>
	<vehicle id="235117288" type="type59" depart="544" departLane="free" departSpeed="max" departPos="last">
		<route id="235117288" edges="29474370#1"/>
	</vehicle>
	<vehicle id="244850737" type="type60" depart="546" departLane="free" departSpeed="max" departPos="last">
		<route id="244850737" edges="58985549 -58985549"/>
	</vehicle>
	<vehicle id="269057516" type="type61" depart="553" departLane="free" departSpeed="max" departPos="last">
		<route id="269057516" edges="360632524#4"/>
	</vehicle>
	<vehicle id="269057489" type="type62" depart="554" departLane="free" departSpeed="max" departPos="last">
		<route id="269057489" edges="360632524#4"/>
	</vehicle>
	<vehicle id="244650269" type="type63" depart="566" departLane="free" departSpeed="max" departPos="last">
		<route id="244650269" edges="27687813#0"/>
	</vehicle>
	<vehicle id="244780635" type="type64" depart="570" departLane="free" departSpeed="max" departPos="last">
		<route id="244780635" edges="29472670 -29472670 92323947#0"/>
	</vehicle>
	<vehicle id="244070982" type="type65" depart="571" departLane="free" departSpeed="max" departPos="last">
		<route id="244070982" edges="-92323947#1 92323947#1"/>
	</vehicle>
	<vehicle id="244740654" type="type66" depart="599" departLane="free" departSpeed="max" departPos="last">
		<route id="244740654" edges="-29474370#1"/>
	</vehicle>
	<vehicle id="244860579" type="type67" depart="616" departLane="free" departSpeed="max" departPos="last">
		<route id="244860579" edges="29997526"/>
	</vehicle>
	<vehicle id="244750686" type="type68" depart="619" departLane="free" departSpeed="max" departPos="last">
		<route id="244750686" edges="360632524#4"/>
	</vehicle>
	<vehicle id="244820383" type="type69" depart="622" departLane="free" departSpeed="max" departPos="last">
		<route id="244820383" edges="gneE50"/>
	</vehicle>
	<vehicle id="244690887" type="type70" depart="623" departLane="free" departSpeed="max" departPos="last">
		<route id="244690887" edges="29472010#0"/>
	</vehicle>
	<vehicle id="244780323" type="type71" depart="625" departLane="free" departSpeed="max" departPos="last">
		<route id="244780323" edges="30010643#1"/>
	</vehicle>
	<vehicle id="248939000" type="type72" depart="635" departLane="free" departSpeed="max" departPos="last">
		<route id="248939000" edges="195582885#0"/>
	</vehicle>
	<vehicle id="244780634" type="type73" depart="647" departLane="free" departSpeed="max" departPos="last">
		<route id="244780634" edges="-29472670 29472670"/>
	</vehicle>
	<vehicle id="244700944" type="type74" depart="649" departLane="free" departSpeed="max" departPos="last">
		<route id="244700944" edges="29472010#1"/>
	</vehicle>
	<vehicle id="244780643" type="type75" depart="673" departLane="free" departSpeed="max" departPos="last">
		<route id="244780643" edges="92323947#0 -92323947#0 29472670 -29472670"/>
	</vehicle>
	<vehicle id="244780142" type="type76" depart="700" departLane="free" departSpeed="max" departPos="last">
		<route id="244780142" edges="-360632526"/>
	</vehicle>
	<vehicle id="244810807" type="type77" depart="714" departLane="free" departSpeed="max" departPos="last">
		<route id="244810807" edges="-22103866#1"/>
	</vehicle>
	<vehicle id="244710542" type="type78" depart="714" departLane="free" departSpeed="max" departPos="last">
		<route id="244710542" edges="388339526"/>
	</vehicle>
	<vehicle id="227228010" type="type79" depart="718" departLane="free" departSpeed="max" departPos="last">
		<route id="227228010" edges="-360632516"/>
	</vehicle>
	<vehicle id="244780647" type="type80" depart="720" departLane="free" departSpeed="max" departPos="last">
		<route id="244780647" edges="-29472670 29472670 -29472670"/>
	</vehicle>
	<vehicle id="244750266" type="type81" depart="722" departLane="free" departSpeed="max" departPos="last">
		<route id="244750266" edges="gneE50"/>
	</vehicle>
	<vehicle id="244710361" type="type82" depart="725" departLane="free" departSpeed="max" departPos="last">
		<route id="244710361" edges="29396393"/>
	</vehicle>
	<vehicle id="244730907" type="type83" depart="746" departLane="free" departSpeed="max" departPos="last">
		<route id="244730907" edges="29474370#1"/>
	</vehicle>
	<vehicle id="244740932" type="type84" depart="752" departLane="free" departSpeed="max" departPos="last">
		<route id="244740932" edges="-22103866#1"/>
	</vehicle>
	<vehicle id="244780368" type="type85" depart="754" departLane="free" departSpeed="max" departPos="last">
		<route id="244780368" edges="-92323947#1"/>
	</vehicle>
	<vehicle id="244750263" type="type86" depart="776" departLane="free" departSpeed="max" departPos="last">
		<route id="244750263" edges="58985549"/>
	</vehicle>
	<vehicle id="244260499" type="type87" depart="801" departLane="free" departSpeed="max" departPos="last">
		<route id="244260499" edges="-29472669"/>
	</vehicle>
	<vehicle id="244660648" type="type88" depart="806" departLane="free" departSpeed="max" departPos="last">
		<route id="244660648" edges="360632524#0 360632524#1 -360632520 360632520 360632524#2 360632524#3 360632524#4 -360632524#4 360632524#4 360632524#5 -360632524#5 360632524#5 360632524#6"/>
	</vehicle>
	<vehicle id="244860580" type="type89" depart="816" departLane="free" departSpeed="max" departPos="last">
		<route id="244860580" edges="29997526"/>
	</vehicle>
	<vehicle id="244780657" type="type90" depart="828" departLane="free" departSpeed="max" departPos="last">
		<route id="244780657" edges="-29472669"/>
	</vehicle>
	<vehicle id="244770115" type="type91" depart="843" departLane="free" departSpeed="max" departPos="last">
		<route id="244770115" edges="-360632526"/>
	</vehicle>
	<vehicle id="244780642" type="type92" depart="851" departLane="free" departSpeed="max" departPos="last">
		<route id="244780642" edges="29472670"/>
	</vehicle>
	<vehicle id="244870759" type="type93" depart="907" departLane="free" departSpeed="max" departPos="last">
		<route id="244870759" edges="-29474370#1"/>
	</vehicle>
	<vehicle id="244810916" type="type94" depart="907" departLane="free" departSpeed="max" departPos="last">
		<route id="244810916" edges="22103866#1"/>
	</vehicle>
	<vehicle id="244710299" type="type95" depart="929" departLane="free" departSpeed="max" departPos="last">
		<route id="244710299" edges="29472010#1"/>
	</vehicle>
	<vehicle id="244830015" type="type96" depart="931" departLane="free" departSpeed="max" departPos="last">
		<route id="244830015" edges="29473472#0"/>
	</vehicle>
	<vehicle id="244260494" type="type97" depart="931" departLane="free" departSpeed="max" departPos="last">
		<route id="244260494" edges="-29472669"/>
	</vehicle>
	<vehicle id="244670099" type="type98" depart="933" departLane="free" departSpeed="max" departPos="last">
		<route id="244670099" edges="-29472599"/>
	</vehicle>
	<vehicle id="244110350" type="type99" depart="942" departLane="free" departSpeed="max" departPos="last">
		<route id="244110350" edges="527004184#0"/>
	</vehicle>
	<vehicle id="244110863" type="type100" depart="956" departLane="free" departSpeed="max" departPos="last">
		<route id="244110863" edges="gneE48"/>
	</vehicle>
	<vehicle id="244750262" type="type101" depart="957" departLane="free" departSpeed="max" departPos="last">
		<route id="244750262" edges="-58985549"/>
	</vehicle>
	<vehicle id="244690683" type="type102" depart="981" departLane="free" departSpeed="max" departPos="last">
		<route id="244690683" edges="68237456"/>
	</vehicle>
	<vehicle id="244615809" type="type103" depart="989" departLane="free" departSpeed="max" departPos="last">
		<route id="244615809" edges="360632524#0"/>
	</vehicle>
	<vehicle id="244810801" type="type104" depart="996" departLane="free" departSpeed="max" departPos="last">
		<route id="244810801" edges="22103866#1 -22103866#1"/>
	</vehicle>
	<vehicle id="244110703" type="type105" depart="1002" departLane="free" departSpeed="max" departPos="last">
		<route id="244110703" edges="527004184#0"/>
	</vehicle>
	<vehicle id="269057506" type="type106" depart="1018" departLane="free" departSpeed="max" departPos="last">
		<route id="269057506" edges="-195582885#0"/>
	</vehicle>
	<vehicle id="244700799" type="type107" depart="1019" departLane="free" departSpeed="max" departPos="last">
		<route id="244700799" edges="-360632526 360632526 360632524#1 360632524#2 360632524#3 360632524#4 360632524#5 -360632524#5 360632524#5 360632524#6"/>
	</vehicle>
	<vehicle id="244850516" type="type108" depart="1032" departLane="free" departSpeed="max" departPos="last">
		<route id="244850516" edges="388339526"/>
	</vehicle>
	<vehicle id="244700935" type="type109" depart="1032" departLane="free" departSpeed="max" departPos="last">
		<route id="244700935" edges="-29980149"/>
	</vehicle>
	<vehicle id="244110860" type="type110" depart="1060" departLane="free" departSpeed="max" departPos="last">
		<route id="244110860" edges="-29473090 29473090"/>
	</vehicle>
	<vehicle id="244110861" type="type111" depart="1075" departLane="free" departSpeed="max" departPos="last">
		<route id="244110861" edges="-29473090 29473090"/>
	</vehicle>
	<vehicle id="244780184" type="type112" depart="1076" departLane="free" departSpeed="max" departPos="last">
		<route id="244780184" edges="22103866#1"/>
	</vehicle>
	<vehicle id="244780687" type="type113" depart="1085" departLane="free" departSpeed="max" departPos="last">
		<route id="244780687" edges="68237456"/>
	</vehicle>
	<vehicle id="244020560" type="type114" depart="1086" departLane="free" departSpeed="max" departPos="last">
		<route id="244020560" edges="195582885#0"/>
	</vehicle>
	<vehicle id="244750258" type="type115" depart="1111" departLane="free" departSpeed="max" departPos="last">
		<route id="244750258" edges="58985549"/>
	</vehicle>
	<vehicle id="244780646" type="type116" depart="1113" departLane="free" departSpeed="max" departPos="last">
		<route id="244780646" edges="29472670"/>
	</vehicle>
	<vehicle id="244780650" type="type117" depart="1114" departLane="free" departSpeed="max" departPos="last">
		<route id="244780650" edges="-195582877#2"/>
	</vehicle>
	<vehicle id="244260497" type="type118" depart="1114" departLane="free" departSpeed="max" departPos="last">
		<route id="244260497" edges="-29472669"/>
	</vehicle>
	<vehicle id="244690688" type="type119" depart="1114" departLane="free" departSpeed="max" departPos="last">
		<route id="244690688" edges="-360632526"/>
	</vehicle>
	<vehicle id="244810800" type="type120" depart="1115" departLane="free" departSpeed="max" departPos="last">
		<route id="244810800" edges="-22103866#1"/>
	</vehicle>
	<vehicle id="244620944" type="type121" depart="1125" departLane="free" departSpeed="max" departPos="last">
		<route id="244620944" edges="29472670"/>
	</vehicle>
	<vehicle id="244780182" type="type122" depart="1128" departLane="free" departSpeed="max" departPos="last">