<?xml version="1.0" encoding="UTF-8"?>
<routes xmlns:xsi="http://www.w3.org/2001/XMLSchema-instance" xsi:noNamespaceSchemaLocation="http://sumo.sf.net/xsd/routes_file.xsd">
	<vType id="type0" maxSpeed="0.8296198596832451"/>
	<vType id="type1" maxSpeed="1.0"/>
	<vType id="type2" maxSpeed="0.9929437975388589"/>
	<vType id="type3" maxSpeed="0.9503155845961361"/>
	<vType id="type4" maxSpeed="1.3257723106280046"/>
	<vType id="type5" maxSpeed="1.0"/>
	<vType id="type6" maxSpeed="1.0"/>
	<vType id="type7" maxSpeed="1.0"/>
	<vType id="type8" maxSpeed="1.0"/>
	<vType id="type9" maxSpeed="1.0"/>
	<vType id="type10" maxSpeed="1.0"/>
	<vType id="type11" maxSpeed="1.0"/>
	<vType id="type12" maxSpeed="0.34542050609583214"/>
	<vType id="type13" maxSpeed="1.1539725430756633"/>
	<vType id="type14" maxSpeed="0.7664570345707005"/>
	<vType id="type15" maxSpeed="1.0"/>
	<vType id="type16" maxSpeed="1.0"/>
	<vType id="type17" maxSpeed="1.1197142857142863"/>
	<vType id="type18" maxSpeed="1.0810235072371002"/>
	<vType id="type19" maxSpeed="0.8895021803593225"/>
	<vType id="type20" maxSpeed="0.5275714809704297"/>
	<vType id="type21" maxSpeed="0.023140080309868163"/>
	<vType id="type22" maxSpeed="1.0"/>
	<vType id="type23" maxSpeed="0.06579655227624487"/>
	<vType id="type24" maxSpeed="0.10234095348714428"/>
	<vType id="type25" maxSpeed="0.6459006569292052"/>
	<vType id="type26" maxSpeed="0.9654627105612638"/>
	<vType id="type27" maxSpeed="0.05893087101110876"/>
	<vType id="type28" maxSpeed="0.012542322438332662"/>
	<vType id="type29" maxSpeed="0.014059190636988845"/>
	<vType id="type30" maxSpeed="0.9386531503976235"/>
	<vType id="type31" maxSpeed="0.0664999118632117"/>
	<vType id="type32" maxSpeed="0.7312095911315359"/>
	<vType id="type33" maxSpeed="1.0"/>
	<vType id="type34" maxSpeed="0.3328682265578479"/>
	<vType id="type35" maxSpeed="0.014149442720090295"/>
	<vType id="type36" maxSpeed="0.9904493319558029"/>
	<vType id="type37" maxSpeed="1.120234113712374"/>
	<vType id="type38" maxSpeed="0.039992145802466926"/>
	<vType id="type39" maxSpeed="0.8736831105881524"/>
	<vType id="type40" maxSpeed="0.09152870623511775"/>
	<vType id="type41" maxSpeed="0.4191196531352215"/>
	<vType id="type42" maxSpeed="0.803973946521808"/>
	<vType id="type43" maxSpeed="0.7216346828515289"/>
	<vType id="type44" maxSpeed="0.5969111248128247"/>
	<vType id="type45" maxSpeed="1.0"/>
	<vType id="type46" maxSpeed="0.3770852930852929"/>
	<vType id="type47" maxSpeed="1.0"/>
	<vType id="type48" maxSpeed="1.0"/>
	<vType id="type49" maxSpeed="1.5665085185900005"/>
	<vType id="type50" maxSpeed="0.03477969450029986"/>
	<vType id="type51" maxSpeed="1.0"/>
	<vType id="type52" maxSpeed="0.6362122250936132"/>
	<vType id="type53" maxSpeed="1.0613168190031752"/>
	<vType id="type54" maxSpeed="1.0"/>
	<vType id="type55" maxSpeed="1.3458566458142966"/>
	<vType id="type56" maxSpeed="1.0463488797439418"/>
	<vType id="type57" maxSpeed="1.2793043036021179"/>
	<vType id="type58" maxSpeed="0.14355467106186"/>
	<vType id="type59" maxSpeed="0.6450889982957774"/>
	<vType id="type60" maxSpeed="1.0"/>
	<vType id="type61" maxSpeed="1.179580505643658"/>
	<vType id="type62" maxSpeed="0.96936348378803"/>
	<vType id="type63" maxSpeed="0.942537723151034"/>
	<vType id="type64" maxSpeed="8.762185534591195"/>
	<vType id="type65" maxSpeed="0.33253053074468275"/>
	<vType id="type66" maxSpeed="0.23178112549213756"/>
	<vType id="type67" maxSpeed="0.8718962359760329"/>
	<vType id="type68" maxSpeed="1.2246912659244804"/>
	<vType id="type69" maxSpeed="1.1391350827756261"/>
	<vType id="type70" maxSpeed="0.8221416268278963"/>
	<vType id="type71" maxSpeed="1.0"/>
	<vType id="type72" maxSpeed="0.013423565735621455"/>
	<vType id="type73" maxSpeed="1.0"/>
	<vType id="type74" maxSpeed="0.9986419598439571"/>
	<vType id="type75" maxSpeed="0.0635988488799673"/>
	<vType id="type76" maxSpeed="0.40258913594346707"/>
	<vType id="type77" maxSpeed="1.0"/>
	<vType id="type78" maxSpeed="0.6130329958224172"/>
	<vType id="type79" maxSpeed="1.0"/>
	<vType id="type80" maxSpeed="0.07123167471155054"/>
	<vType id="type81" maxSpeed="0.9107470645265547"/>
	<vType id="type82" maxSpeed="0.6146884806600612"/>
	<vType id="type83" maxSpeed="1.0"/>
	<vType id="type84" maxSpeed="0.8430115748489281"/>
	<vType id="type85" maxSpeed="0.9281694206825701"/>
	<vType id="type86" maxSpeed="0.016661670235546037"/>
	<vType id="type87" maxSpeed="0.7228969349345762"/>
	<vType id="type88" maxSpeed="0.27510222397731143"/>
	<vType id="type89" maxSpeed="0.5147805886301802"/>
	<vType id="type90" maxSpeed="0.558961064831583"/>
	<vType id="type91" maxSpeed="0.8296903722630325"/>
	<vType id="type92" maxSpeed="0.016305433933470198"/>
	<vType id="type93" maxSpeed="0.8200058681271779"/>
	<vType id="type94" maxSpeed="1.281176949632645"/>
	<vType id="type95" maxSpeed="0.10076333947473"/>
	<vType id="type96" maxSpeed="0.6378654892990763"/>
	<vType id="type97" maxSpeed="1.279773637039923"/>
	<vType id="type98" maxSpeed="1.0"/>
	<vType id="type99" maxSpeed="0.4507794622932237"/>
	<vType id="type100" maxSpeed="0.9066645695899914"/>
	<vType id="type101" maxSpeed="0.8228225935047218"/>
	<vType id="type102" maxSpeed="1.0"/>
	<vType id="type103" maxSpeed="0.24194695653731121"/>
	<vType id="type104" maxSpeed="1.2047492196367764"/>
	<vType id="type105" maxSpeed="0.04962219624622307"/>
	<vType id="type106" maxSpeed="0.10969584602480908"/>
	<vType id="type107" maxSpeed="1.0"/>
	<vType id="type108" maxSpeed="0.528508803130002"/>
	<vType id="type109" maxSpeed="0.9890908435991645"/>
	<vType id="type110" maxSpeed="0.15573015873015872"/>
	<vType id="type111" maxSpeed="1.2025954837904789"/>
	<vType id="type112" maxSpeed="0.786540036231884"/>
	<vType id="type113" maxSpeed="0.6937046897767545"/>
	<vType id="type114" maxSpeed="0.7648499587207006"/>
	<vType id="type115" maxSpeed="0.6439702321606608"/>
	<vType id="type116" maxSpeed="0.5299145146610031"/>
	<vType id="type117" maxSpeed="0.929294656053564"/>
	<vType id="type118" maxSpeed="1.0"/>
	<vType id="type119" maxSpeed="0.3551772959183674"/>
	<vType id="type120" maxSpeed="0.9716550012498661"/>
	<vType id="type121" maxSpeed="0.07812163067867238"/>
	<vType id="type122" maxSpeed="0.2261983260088623"/>
	<vType id="type123" maxSpeed="8.043477588871715"/>
	<vType id="type124" maxSpeed="0.8892734229121665"/>
	<vType id="type125" maxSpeed="0.01586722939973092"/>
	<vType id="type126" maxSpeed="0.35481087811744333"/>
	<vType id="type127" maxSpeed="8.281430976430977"/>
	<vType id="type128" maxSpeed="0.14703878029422082"/>
	<vType id="type129" maxSpeed="0.8467786253888304"/>
	<vType id="type130" maxSpeed="0.11561240107510828"/>
	<vType id="type131" maxSpeed="1.0"/>
	<vType id="type132" maxSpeed="0.20195682093629957"/>
	<vType id="type133" maxSpeed="0.30602432866651363"/>
	<vType id="type134" maxSpeed="0.1330432824054957"/>
	<vType id="type135" maxSpeed="0.0196828808281065"/>
	<vType id="type136" maxSpeed="0.10658210922787194"/>
	<vType id="type137" maxSpeed="8.106121495327104"/>
	<vType id="type138" maxSpeed="1.0"/>
	<vType id="type139" maxSpeed="0.2878600835060878"/>
	<vType id="type140" maxSpeed="0.07163277318902497"/>
	<vType id="type141" maxSpeed="0.41701967975499543"/>
	<vType id="type142" maxSpeed="0.510449261046313"/>
	<vType id="type143" maxSpeed="0.9743422656515395"/>
	<vType id="type144" maxSpeed="0.10963195973576598"/>
	<vType id="type145" maxSpeed="0.2148721275382831"/>
	<vType id="type146" maxSpeed="8.542471728594506"/>
	<vType id="type147" maxSpeed="0.31924126856684065"/>
	<vType id="type148" maxSpeed="1.4194185036602012"/>
	<vType id="type149" maxSpeed="8.0"/>
	<vType id="type150" maxSpeed="0.3473224286227519"/>
	<vType id="type151" maxSpeed="1.2042941670249574"/>
	<vType id="type152" maxSpeed="1.0"/>
	<vType id="type153" maxSpeed="6.993114503816795"/>
	<vType id="type154" maxSpeed="0.05960770069015619"/>
	<vType id="type155" maxSpeed="8.70973404255319"/>
	<vType id="type156" maxSpeed="7.567953846153847"/>
	<vType id="type157" maxSpeed="0.5215872896916101"/>
	<vType id="type158" maxSpeed="7.998650406504066"/>
	<vType id="type159" maxSpeed="0.19889405819006237"/>
	<vType id="type160" maxSpeed="8.0"/>
	<vType id="type161" maxSpeed="8.0"/>
	<vType id="type162" maxSpeed="8.484093264248703"/>
	<vType id="type163" maxSpeed="1.1553292341037047"/>
	<vType id="type164" maxSpeed="8.0"/>
	<vType id="type165" maxSpeed="1.2846112385049977"/>
	<vType id="type166" maxSpeed="9.91510708401977"/>
	<vType id="type167" maxSpeed="0.21801148809813561"/>
	<vType id="type168" maxSpeed="1.3352982581722765"/>
	<vType id="type169" maxSpeed="0.5046522948539638"/>
	<vType id="type170" maxSpeed="8.0"/>
	<vType id="type171" maxSpeed="0.6967071505569531"/>
	<vType id="type172" maxSpeed="0.2567759888690121"/>
	<vType id="type173" maxSpeed="1.8689801894918183"/>
	<vType id="type174" maxSpeed="7.531152777777778"/>
	<vType id="type175" maxSpeed="0.10190292870717801"/>
	<vType id="type176" maxSpeed="1.5617573726871847"/>
	<vType id="type177" maxSpeed="3.450321603355861"/>
	<vType id="type178" maxSpeed="0.06058836990515905"/>
	<vType id="type179" maxSpeed="8.992998171846436"/>
	<vType id="type180" maxSpeed="7.899035087719299"/>
	<vType id="type181" maxSpeed="0.24976472358783985"/>
	<vType id="type182" maxSpeed="1.119705155322241"/>
	<vType id="type183" maxSpeed="0.8155668170367332"/>
	<vType id="type184" maxSpeed="0.0650819963294062"/>
	<vType id="type185" maxSpeed="9.065285326086958"/>
	<vType id="type186" maxSpeed="0.9552101102558778"/>
	<vType id="type187" maxSpeed="6.40578947368421"/>
	<vType id="type188" maxSpeed="0.9646964503801759"/>
	<vType id="type189" maxSpeed="1.5504496874915448"/>
	<vType id="type190" maxSpeed="8.545369458128079"/>
	<vType id="type191" maxSpeed="7.647418879056046"/>
	<vType id="type192" maxSpeed="0.5469307037687424"/>
	<vType id="type193" maxSpeed="1.2675276035361878"/>
	<vType id="type194" maxSpeed="9.496245421245419"/>
	<vType id="type195" maxSpeed="1.5725134509296477"/>
	<vType id="type196" maxSpeed="0.41646678997814024"/>
	<vType id="type197" maxSpeed="0.04154631083202512"/>
	<vType id="type198" maxSpeed="7.313474576271187"/>
	<vType id="type199" maxSpeed="0.866348932785364"/>
	<vType id="type200" maxSpeed="0.5916802192371625"/>
	<vType id="type201" maxSpeed="1.2003326591602013"/>
	<vType id="type202" maxSpeed="1.8976549723028235"/>
	<vType id="type203" maxSpeed="1.3827379937064386"/>
	<vType id="type204" maxSpeed="1.214707187769696"/>
	<vType id="type205" maxSpeed="8.525873544093178"/>
	<vType id="type206" maxSpeed="0.717024377516028"/>
	<vType id="type207" maxSpeed="4.509839471199244"/>
	<vType id="type208" maxSpeed="6.894895833333333"/>
	<vType id="type209" maxSpeed="1.8081174811748124"/>
	<vType id="type210" maxSpeed="1.7298120063665587"/>
	<vType id="type211" maxSpeed="5.8202488151658756"/>
	<vType id="type212" maxSpeed="0.6386185013424457"/>
	<vType id="type213" maxSpeed="5.469438202247191"/>
	<vType id="type214" maxSpeed="9.588777777777779"/>
	<vType id="type215" maxSpeed="1.4043037623640344"/>
	<vType id="type216" maxSpeed="1.6266563092080335"/>
	<vType id="type217" maxSpeed="1.683944962488229"/>
	<vType id="type218" maxSpeed="2.1040199325360316"/>
	<vType id="type219" maxSpeed="1.8281595015962564"/>
	<vType id="type220" maxSpeed="0.2481692239411616"/>
	<vType id="type221" maxSpeed="0.5957700132684653"/>
	<vType id="type222" maxSpeed="1.5877215342070454"/>
	<vType id="type223" maxSpeed="0.11701789757746828"/>
	<vType id="type224" maxSpeed="1.7950364804868204"/>
	<vType id="type225" maxSpeed="1.0"/>
	<vType id="type226" maxSpeed="2.3758142274869436"/>
	<vType id="type227" maxSpeed="8.0"/>
	<vType id="type228" maxSpeed="9.423697318007664"/>
	<vType id="type229" maxSpeed="1.5164525211159454"/>
	<vType id="type230" maxSpeed="8.0"/>
	<vType id="type231" maxSpeed="1.6119695064951798"/>
	<vType id="type232" maxSpeed="8.0"/>
	<vType id="type233" maxSpeed="1.7140912654853377"/>
	<vType id="type234" maxSpeed="1.7650739442497079"/>
	<vType id="type235" maxSpeed="1.9247102473498234"/>
	<vType id="type236" maxSpeed="9.86527985074627"/>
	<vType id="type237" maxSpeed="8.0"/>
	<vType id="type238" maxSpeed="7.027596566523604"/>
	<vType id="type239" maxSpeed="1.8499339977559246"/>
	<vType id="type240" maxSpeed="0.5382799354417774"/>
	<vType id="type241" maxSpeed="8.895948717948718"/>
	<vType id="type242" maxSpeed="2.2538770491803275"/>
	<vType id="type243" maxSpeed="0.4339777306468718"/>
	<vType id="type244" maxSpeed="1.1083715270736159"/>
	<vType id="type245" maxSpeed="7.791631644004945"/>
	<vType id="type246" maxSpeed="7.510183206106871"/>
	<vType id="type247" maxSpeed="0.13411568132532262"/>
	<vType id="type248" maxSpeed="1.3653272984145266"/>
	<vType id="type249" maxSpeed="2.694130366546923"/>
	<vType id="type250" maxSpeed="8.598908857509628"/>
	<vType id="type251" maxSpeed="1.4513016069221263"/>
	<vType id="type252" maxSpeed="6.610298769771529"/>
	<vType id="type253" maxSpeed="0.22990618062021054"/>
	<vType id="type254" maxSpeed="8.0"/>
	<vType id="type255" maxSpeed="2.311299366250133"/>
	<vType id="type256" maxSpeed="1.0550229333333339"/>
	<vType id="type257" maxSpeed="2.25788097097026"/>
	<vType id="type258" maxSpeed="1.4081515227606995"/>
	<vType id="type259" maxSpeed="1.0"/>
	<vType id="type260" maxSpeed="9.387729007633588"/>
	<vType id="type261" maxSpeed="2.24184960365636"/>
	<vType id="type262" maxSpeed="6.232678160919541"/>
	<vType id="type263" maxSpeed="1.4257108149893238"/>
	<vType id="type264" maxSpeed="2.826728588400473"/>
	<vType id="type265" maxSpeed="1.3223938223938223"/>
	<vType id="type266" maxSpeed="8.0"/>
	<vType id="type267" maxSpeed="3.2104804769698405"/>
	<vType id="type268" maxSpeed="1.602036293321434"/>
	<vType id="type269" maxSpeed="1.168999812558575"/>
	<vType id="type270" maxSpeed="1.7528874117158282"/>
	<vType id="type271" maxSpeed="1.194527243589744"/>
	<vType id="type272" maxSpeed="1.1696982016123474"/>
	<vType id="type273" maxSpeed="2.176143179126715"/>
	<vType id="type274" maxSpeed="1.6519951012285201"/>
	<vType id="type275" maxSpeed="1.676993076923076"/>
	<vType id="type276" maxSpeed="6.302491060786651"/>
	<vType id="type277" maxSpeed="1.7358141412587955"/>
	<vType id="type278" maxSpeed="0.11908646616541353"/>
	<vType id="type279" maxSpeed="3.076513849092646"/>
	<vType id="type280" maxSpeed="7.551206140350876"/>
	<vType id="type281" maxSpeed="2.45911361079865"/>
	<vType id="type282" maxSpeed="1.9548630546585326"/>
	<vType id="type283" maxSpeed="1.853426391947153"/>
	<vType id="type284" maxSpeed="8.0"/>
	<vType id="type285" maxSpeed="8.29778716216216"/>
	<vType id="type286" maxSpeed="0.2572643125101941"/>
	<vType id="type287" maxSpeed="4.863653465346534"/>
	<vType id="type288" maxSpeed="2.584968362034439"/>
	<vType id="type289" maxSpeed="1.7749392103613955"/>
	<vType id="type290" maxSpeed="0.19993116058943744"/>
	<vType id="type291" maxSpeed="0.16757689453286057"/>
	<vType id="type292" maxSpeed="1.1022536087605777"/>
	<vType id="type293" maxSpeed="1.3851959681785997"/>
	<vType id="type294" maxSpeed="8.0"/>
	<vType id="type295" maxSpeed="2.065700609962725"/>
	<vType id="type296" maxSpeed="0.24188844518871574"/>
	<vType id="type297" maxSpeed="8.0"/>
	<vType id="type298" maxSpeed="2.648495428096426"/>
	<vType id="type299" maxSpeed="1.0293016010385114"/>
	<vType id="type300" maxSpeed="1.0230145310435934"/>
	<vType id="type301" maxSpeed="8.767290715372908"/>
	<vType id="type302" maxSpeed="4.469642541924095"/>
	<vType id="type303" maxSpeed="7.448392857142857"/>
	<vType id="type304" maxSpeed="8.572931937172774"/>
	<vType id="type305" maxSpeed="9.982935916542473"/>
	<vType id="type306" maxSpeed="8.0"/>
	<vType id="type307" maxSpeed="1.8670675764913052"/>
	<vType id="type308" maxSpeed="0.7922250625765567"/>
	<vType id="type309" maxSpeed="6.437116336633662"/>
	<vType id="type310" maxSpeed="1.505970733443046"/>
	<vType id="type311" maxSpeed="0.01023948056328527"/>
	<vType id="type312" maxSpeed="8.0"/>
	<vType id="type313" maxSpeed="8.767290715372908"/>
	<vType id="type314" maxSpeed="7.653399558498895"/>
	<vType id="type315" maxSpeed="9.664381139489194"/>
	<vType id="type316" maxSpeed="3.516193065941536"/>
	<vType id="type317" maxSpeed="8.394488054607509"/>
	<vType id="type318" maxSpeed="0.6808909669459056"/>
	<vType id="type319" maxSpeed="0.29393007105943153"/>
	<vType id="type320" maxSpeed="8.953735795454547"/>
	<vType id="type321" maxSpeed="8.0"/>
	<vType id="type322" maxSpeed="8.572931937172774"/>
	<vType id="type323" maxSpeed="9.91144376899696"/>
	<vType id="type324" maxSpeed="6.951579651941096"/>
	<vType id="type325" maxSpeed="0.18566180339631666"/>
	<vType id="type326" maxSpeed="3.3703981481481478"/>
	<vType id="type327" maxSpeed="7.783496835443038"/>
	<vType id="type328" maxSpeed="6.15983899821109"/>
	<vType id="type329" maxSpeed="0.14409882088714207"/>
	<vType id="type330" maxSpeed="1.923071696344891"/>
	<vType id="type331" maxSpeed="8.0"/>
	<vType id="type332" maxSpeed="0.5546359202532731"/>
	<vType id="type333" maxSpeed="8.0"/>
	<vType id="type334" maxSpeed="0.2176095578988101"/>
	<vType id="type335" maxSpeed="0.12916678542587046"/>
	<vType id="type336" maxSpeed="8.408837606837608"/>
	<vType id="type337" maxSpeed="0.6117747093023255"/>
	<vType id="type338" maxSpeed="0.33602059018398667"/>
	<vType id="type339" maxSpeed="0.1744144705318639"/>
	<vType id="type340" maxSpeed="0.3631215622949992"/>
	<vType id="type341" maxSpeed="1.407204828736873"/>
	<vType id="type342" maxSpeed="1.1432255025125628"/>
	<vType id="type343" maxSpeed="8.71713567839196"/>
	<vType id="type344" maxSpeed="2.1991802785850276"/>
	<vType id="type345" maxSpeed="1.7704885828565649"/>
	<vType id="type346" maxSpeed="3.623533533533534"/>
	<vType id="type347" maxSpeed="4.3625231481481475"/>
	<vType id="type348" maxSpeed="0.15984554559831313"/>
	<vType id="type349" maxSpeed="8.931436363636362"/>
	<vType id="type350" maxSpeed="9.765984095427433"/>
	<vType id="type351" maxSpeed="6.298553137003841"/>
	<vType id="type352" maxSpeed="6.427985347985349"/>
	<vType id="type353" maxSpeed="8.959860724233982"/>
	<vType id="type354" maxSpeed="6.8295669291338585"/>
	<vType id="type355" maxSpeed="8.0"/>
	<vType id="type356" maxSpeed="6.2584860050890585"/>
	<vType id="type357" maxSpeed="1.986981381571988"/>
	<vType id="type358" maxSpeed="0.3540384718426834"/>
	<vType id="type359" maxSpeed="6.100776426566886"/>
	<vType id="type360" maxSpeed="1.0"/>
	<vType id="type361" maxSpeed="0.23788515765188414"/>
	<vType id="type362" maxSpeed="7.463475877192983"/>
	<vType id="type363" maxSpeed="2.263790523690773"/>
	<vType id="type364" maxSpeed="3.8058731290092656"/>
	<vType id="type365" maxSpeed="2.9252020785219406"/>
	<vType id="type366" maxSpeed="8.0"/>
	<vType id="type367" maxSpeed="7.007364672364672"/>
	<vType id="type368" maxSpeed="1.710246628418151"/>
	<vType id="type369" maxSpeed="0.21188563155989865"/>
	<vType id="type370" maxSpeed="1.0"/>
	<vType id="type371" maxSpeed="1.0"/>
	<vType id="type372" maxSpeed="9.664381139489194"/>
	<vType id="type373" maxSpeed="4.741077101898488"/>
	<vType id="type374" maxSpeed="8.0"/>
	<vType id="type375" maxSpeed="2.3424872378375055"/>
	<vType id="type376" maxSpeed="1.9811586079457957"/>
	<vType id="type377" maxSpeed="9.669862204724408"/>
	<vType id="type378" maxSpeed="8.0"/>
	<vType id="type379" maxSpeed="9.688934911242601"/>
	<vType id="type380" maxSpeed="2.9820926243567754"/>
	<vType id="type381" maxSpeed="1.3056950727472798"/>
	<vType id="type382" maxSpeed="0.7653293172690764"/>
	<vType id="type383" maxSpeed="8.0"/>
	<vType id="type384" maxSpeed="8.685008375209378"/>
	<vType id="type385" maxSpeed="2.5686517943743943"/>
	<vType id="type386" maxSpeed="3.837719350073855"/>
	<vType id="type387" maxSpeed="8.0"/>
	<vType id="type388" maxSpeed="1.433102247114268"/>
	<vType id="type389" maxSpeed="1.0338417322834645"/>
	<vType id="type390" maxSpeed="1.6195566037735853"/>
	<vType id="type391" maxSpeed="8.0"/>
	<vType id="type392" maxSpeed="8.0"/>
	<vType id="type393" maxSpeed="8.99686813186813"/>
	<vType id="type394" maxSpeed="1.4002302742973243"/>
	<vType id="type395" maxSpeed="1.6843658573367515"/>
	<vType id="type396" maxSpeed="8.0"/>
	<vType id="type397" maxSpeed="8.540225694444445"/>
	<vType id="type398" maxSpeed="0.6556530037262565"/>
	<vType id="type399" maxSpeed="1.1134926683787587"/>
	<vType id="type400" maxSpeed="7.596358620689656"/>
	<vType id="type401" maxSpeed="1.5152013177159593"/>
	<vType id="type402" maxSpeed="8.0"/>
	<vType id="type403" maxSpeed="8.0"/>
	<vType id="type404" maxSpeed="0.7916854361519374"/>
	<vType id="type405" maxSpeed="1.8194415788293339"/>
	<vType id="type406" maxSpeed="8.397076923076922"/>
	<vType id="type407" maxSpeed="1.0"/>
	<vType id="type408" maxSpeed="3.8710943396226414"/>
	<vType id="type409" maxSpeed="5.8421572052401745"/>
	<vType id="type410" maxSpeed="9.501528046421662"/>
	<vType id="type411" maxSpeed="8.695328282828282"/>
	<vType id="type412" maxSpeed="1.2270585952658133"/>
	<vType id="type413" maxSpeed="0.48908818410365507"/>
	<vType id="type414" maxSpeed="8.911181506849315"/>
	<vType id="type415" maxSpeed="5.282032258064515"/>
	<vType id="type416" maxSpeed="8.052934426229507"/>
	<vType id="type417" maxSpeed="8.439583333333331"/>
	<vType id="type418" maxSpeed="1.7271574826859377"/>
	<vType id="type419" maxSpeed="0.4055482633279483"/>
	<vType id="type420" maxSpeed="1.8426554894537588"/>
	<vType id="type421" maxSpeed="0.22569321533923303"/>
	<vType id="type422" maxSpeed="8.0"/>
	<vType id="type423" maxSpeed="8.33590448625181"/>
	<vType id="type424" maxSpeed="8.0"/>
	<vType id="type425" maxSpeed="7.699514106583071"/>
	<vType id="type426" maxSpeed="7.228085106382979"/>
	<vType id="type427" maxSpeed="2.5211502426910495"/>
	<vType id="type428" maxSpeed="1.0"/>
	<vType id="type429" maxSpeed="8.0"/>
	<vType id="type430" maxSpeed="9.432177121771216"/>
	<vType id="type431" maxSpeed="9.965588235294119"/>
	<vType id="type432" maxSpeed="8.0"/>
	<vType id="type433" maxSpeed="0.3705970815961882"/>
	<vType id="type434" maxSpeed="9.157567567567568"/>
	<vType id="type435" maxSpeed="7.872259615384614"/>
	<vType id="type436" maxSpeed="2.548415617941272"/>
	<vType id="type437" maxSpeed="8.0"/>
	<vType id="type438" maxSpeed="8.0"/>
	<vType id="type439" maxSpeed="8.0"/>
	<vType id="type440" maxSpeed="0.7723382134521536"/>
	<vType id="type441" maxSpeed="8.0"/>
	<vType id="type442" maxSpeed="1.2456993865030674"/>
	<vType id="type443" maxSpeed="3.415276073619632"/>
	<vType id="type444" maxSpeed="3.3509755442085463"/>
	<vType id="type445" maxSpeed="8.0"/>
	<vType id="type446" maxSpeed="8.0"/>
	<vType id="type447" maxSpeed="1.5591891191709846"/>
	<vType id="type448" maxSpeed="8.0"/>
	<vType id="type449" maxSpeed="8.255949579831931"/>
	<vType id="type450" maxSpeed="1.7015079073188668"/>
	<vType id="type451" maxSpeed="6.976045576407507"/>
	<vType id="type452" maxSpeed="8.054200000000002"/>
	<vType id="type453" maxSpeed="2.6503766879886284"/>
	<vType id="type454" maxSpeed="0.6839467645709041"/>
	<vType id="type455" maxSpeed="8.618052631578946"/>
	<vType id="type456" maxSpeed="1.0"/>
	<vType id="type457" maxSpeed="3.0035877862595424"/>
	<vType id="type458" maxSpeed="8.0"/>
	<vType id="type459" maxSpeed="1.0"/>
	<vType id="type460" maxSpeed="1.7256816326530613"/>
	<vType id="type461" maxSpeed="8.0"/>
	<vType id="type462" maxSpeed="9.650864440078584"/>
	<vType id="type463" maxSpeed="7.381744680851064"/>
	<vType id="type464" maxSpeed="8.86043956043956"/>
	<vType id="type465" maxSpeed="3.6009693053311795"/>
	<vehicle id="244250734" type="type0" depart="0" departLane="free" departSpeed="max" departPos="last">
		<route id="244250734" edges="-22103866#1 22103866#1 -22103866#1 -29473090 29473090 -29473090 29473090 22103866#1 -22103866#1 22103866#1 29473424 -12869939#3 -12869939#2 -12869939#1 12869939#1 -12869939#1 -12869939#0 -17162472#2 17162472#2 -17162472#2 -17162472#1 17162472#1 -17162472#1 -17162472#0 17162472#0 -17162472#0 29473678#2 -29473678#2 29473678#2 gneE43 360632518#1 360632520 -360632520 360632520 360632524#2 -360632522 360632522 -360632522 -360631716 360631716 360632522 360632524#3 360632524#4 -29474860#1 -29474860#0 29474860#0 -29474860#0 -29472010#1 -29472010#0 -29407365#3 -29407365#2 -29407365#1 gneE34 -17163948#0 -195582876 195582876 -195582876 -30123973#5 -30123973#4 gneE5 -527004184#0 29473090 -29473090 29473090 22103866#1 -22103866#1 22103866#1 29473424 -12869939#3 -12869939#2 -12869939#1 -12869939#0 -17162472#2 -17162472#1 -17162472#0 29473678#2 gneE43 360632518#1 360632520 360632524#2 360632524#3 360632524#4 -29474860#1 -29474860#0 -29472010#1 -29472010#0 -29407365#3 -29407365#2 -29407365#1 gneE34 -17163948#0 -195582876 195582876 -195582876 -30123973#5 -30123973#4 gneE5 -527004184#0 29473090 -29473090 29473090 22103866#1 -22103866#1 -22103865 -29473027 -12869938 -593311097#0 12869939#2 -12869939#2 -12869939#1 -12869939#0 12869939#0 -12869939#0 -17162472#2 17162472#2 -17162472#2 -17162472#1 -17162472#0 29473678#2 gneE43 360632518#1 360632520 360632524#2 -360632524#2 360632524#2 -360632522 360632522 360632524#3 360632524#4 -29474860#1 -29474860#0 -29472010#1 -29472010#0 -29407365#3 -29407365#2 -29407365#1 gneE34 -17163948#0 -195582876 -30123973#5 -30123973#4 gneE5 -527004184#0"/>
	</vehicle>
	<vehicle id="226012930" type="type1" depart="2" departLane="free" departSpeed="max" departPos="last">
		<route id="226012930" edges="-23294019#0"/>
	</vehicle>
	<vehicle id="244750256" type="type2" depart="29" departLane="free" departSpeed="max" departPos="last">
		<route id="244750256" edges="58985549 -58985549 360632518#1 360632520 -360632520 360632520 -360632524#1 -360632526 -33914156 -33912317 -gneE27 29473019#0 29473019#1 29473019#2 29473019#3 29473019#4 29473019#5 29473019#6 593311097#0 593311097#1 -593311097#1 593311097#1 593311097#4 -593311097#4 593311097#4 30123973#4 30123973#5 195582876 17163948#0 gneE33 29407365#1 29407365#2 -29407365#2 29407365#2 29407365#3 29472010#0 29472010#1 -23294019#2 23294019#2 29474860#0 29474860#1 -360632524#4 -360632524#3 -360632524#2 -360632520 360632520 -360632520 -360632518#1 58985549 -58985549 58985549 -58985549 360632518#1 360632520 -360632520 360632520 -360632524#1 -360632526 -33914156 33914156 -33914156 -33912317 -gneE27 gneE27 -gneE27 29473019#0 29473019#1 29473019#2 29473019#3 29473019#4 29473019#5 29473019#6 593311097#0 -593311097#0 593311097#0 593311097#1 -593311097#1 593311097#1 593311097#4 -593311097#4 17162469#1 -17166660 30123973#5 29404935#0 -29404935#0 29404935#0 29404961 -29404961 29404961 23294019#0 23294019#1 23294019#2 29474860#0 29474860#1 -360632524#4 -360632524#3 -360632524#2 360632524#2 -360632524#2 -360632520 -360632518#1 58985549 -58985549 58985549 -58985549 360632518#1 360632520 -360632524#1 -360632526 -33914156 -33912317 -gneE27 gneE27 -gneE27 29473019#0 29473019#1 29473019#2 29473019#3 29473019#4 29473019#5 29473019#6 593311097#0 -593311097#0 593311097#0 593311097#1 -593311097#1 593311097#1 593311097#4 -593311097#4 17162469#1 17162469#2 17162472#5 195582876 17163948#0 gneE33 29407365#1 29407365#2 29407365#3 29472010#0 29472010#1 29474860#0 29474860#1 -360632524#4 -360632524#3 -360632522 360632522 -360632524#2 -360632520 -360632518#1 58985549 -58985549 58985549 -58985549 360632518#1 360632520 -360632520 360632520 -360632524#1 -360632526 -33914156 33914156 -33914156 -33912317 -gneE27 gneE27 -gneE27 29473019#0 29473019#1 29473019#2 29473019#3 29473019#4 29473019#5 29473019#6 593311097#0 -593311097#0 593311097#0 593311097#1 -593311097#1 593311097#1 593311097#4 -593311097#4 17162469#1 -17166660 -30123973#4 30123973#4 30123973#5 29404935#0 -29404935#0 29404935#0 29404961 -29404961 29404961 23294019#0 23294019#1 23294019#2 29474860#0 -404425491 404425491 29474860#1 -360632524#4 -360632516 360632516 -360632524#3 -360632524#2 -360632520 -360632518#1 58985549 -58985549 58985549 -58985549 360632518#1 360632520 -360632520 360632520 -360632524#1 -360632526 -33914156 -33912317 -gneE27 gneE27 -gneE27 29473019#0 29473019#1 29473019#2 29473019#3 29473019#4 29473019#5 29473019#6 593311097#0 -593311097#0"/>
	</vehicle>
	<vehicle id="244750240" type="type3" depart="52" departLane="free" departSpeed="max" departPos="last">