<?xml version="1.0" encoding="UTF-8"?>
<routes xmlns:xsi="http://www.w3.org/2001/XMLSchema-instance" xsi:noNamespaceSchemaLocation="http://sumo.sf.net/xsd/routes_file.xsd">
	<vType id="type0" maxSpeed="1.4152385942849137"/>
	<vType id="type1" maxSpeed="0.09726220932452553"/>
	<vType id="type2" maxSpeed="1.3341002004008058"/>
	<vType id="type3" maxSpeed="0.7956781597167717"/>
	<vType id="type4" maxSpeed="0.6061452988428464"/>
	<vType id="type5" maxSpeed="1.0"/>
	<vType id="type6" maxSpeed="1.4947949343965727"/>
	<vType id="type7" maxSpeed="0.7267898581114139"/>
	<vType id="type8" maxSpeed="0.4243400064864228"/>
	<vType id="type9" maxSpeed="0.15660138920801003"/>
	<vType id="type10" maxSpeed="0.677793731041456"/>
	<vType id="type11" maxSpeed="2.620914149443561"/>
	<vType id="type12" maxSpeed="1.0"/>
	<vType id="type13" maxSpeed="1.0"/>
	<vType id="type14" maxSpeed="0.7163357899585451"/>
	<vType id="type15" maxSpeed="1.0"/>
	<vType id="type16" maxSpeed="0.8094364380935782"/>
	<vType id="type17" maxSpeed="0.587011565068915"/>
	<vType id="type18" maxSpeed="4.554346701164296"/>
	<vType id="type19" maxSpeed="0.9141574331775449"/>
	<vType id="type20" maxSpeed="0.013207347227128222"/>
	<vType id="type21" maxSpeed="0.8724515037331662"/>
	<vType id="type22" maxSpeed="1.0"/>
	<vType id="type23" maxSpeed="0.01551579168637343"/>
	<vType id="type24" maxSpeed="0.04134745298521088"/>
	<vType id="type25" maxSpeed="0.16599465597862392"/>
	<vType id="type26" maxSpeed="0.17030464664836223"/>
	<vType id="type27" maxSpeed="1.0"/>
	<vType id="type28" maxSpeed="1.1062469157406596"/>
	<vType id="type29" maxSpeed="1.1003300099526812"/>
	<vType id="type30" maxSpeed="0.044043283608500995"/>
	<vType id="type31" maxSpeed="1.0"/>
	<vType id="type32" maxSpeed="0.557238477685498"/>
	<vType id="type33" maxSpeed="1.0"/>
	<vType id="type34" maxSpeed="0.1640244164399255"/>
	<vType id="type35" maxSpeed="0.5673346425064714"/>
	<vType id="type36" maxSpeed="0.761146525706111"/>
	<vType id="type37" maxSpeed="0.8780287252505931"/>
	<vType id="type38" maxSpeed="0.03148412138320395"/>
	<vType id="type39" maxSpeed="0.9860774886877834"/>
	<vType id="type40" maxSpeed="8.0"/>
	<vType id="type41" maxSpeed="1.0"/>
	<vType id="type42" maxSpeed="0.08816253298153034"/>
	<vType id="type43" maxSpeed="0.8499276868526314"/>
	<vType id="type44" maxSpeed="0.20471867886440756"/>
	<vType id="type45" maxSpeed="1.0"/>
	<vType id="type46" maxSpeed="1.0885090266601354"/>
	<vType id="type47" maxSpeed="1.1163210088148878"/>
	<vType id="type48" maxSpeed="1.0"/>
	<vType id="type49" maxSpeed="0.1618254087295635"/>
	<vType id="type50" maxSpeed="0.7886451240219158"/>
	<vType id="type51" maxSpeed="1.0"/>
	<vType id="type52" maxSpeed="1.0"/>
	<vType id="type53" maxSpeed="0.5747127100840337"/>
	<vType id="type54" maxSpeed="0.1548370412356525"/>
	<vType id="type55" maxSpeed="1.0"/>
	<vType id="type56" maxSpeed="0.013076343765872113"/>
	<vType id="type57" maxSpeed="1.0"/>
	<vType id="type58" maxSpeed="0.6996525419207997"/>
	<vType id="type59" maxSpeed="0.09121307719421926"/>
	<vType id="type60" maxSpeed="0.6587710283791689"/>
	<vType id="type61" maxSpeed="1.2290475854776168"/>
	<vType id="type62" maxSpeed="0.22118487215149246"/>
	<vType id="type63" maxSpeed="0.6528389570820713"/>
	<vType id="type64" maxSpeed="0.23876587734421728"/>
	<vType id="type65" maxSpeed="0.4824288994877229"/>
	<vType id="type66" maxSpeed="1.0353134480158521"/>
	<vType id="type67" maxSpeed="0.08040485829959514"/>
	<vType id="type68" maxSpeed="0.7721394801131872"/>
	<vType id="type69" maxSpeed="0.12754817452657505"/>
	<vType id="type70" maxSpeed="1.0"/>
	<vType id="type71" maxSpeed="0.8917137995158062"/>
	<vType id="type72" maxSpeed="1.2216848723262261"/>
	<vType id="type73" maxSpeed="0.01595945945945946"/>
	<vType id="type74" maxSpeed="0.653959656728302"/>
	<vType id="type75" maxSpeed="0.9808232607167962"/>
	<vType id="type76" maxSpeed="0.014105661040787624"/>
	<vType id="type77" maxSpeed="1.0"/>
	<vType id="type78" maxSpeed="0.3243429655249359"/>
	<vType id="type79" maxSpeed="0.6720158262984437"/>
	<vType id="type80" maxSpeed="0.3531361622837856"/>
	<vType id="type81" maxSpeed="0.4156273704171935"/>
	<vType id="type82" maxSpeed="1.0086559687851524"/>
	<vType id="type83" maxSpeed="0.592486982760207"/>
	<vType id="type84" maxSpeed="0.013169253536759396"/>
	<vType id="type85" maxSpeed="1.0"/>
	<vType id="type86" maxSpeed="0.14395350077320962"/>
	<vType id="type87" maxSpeed="1.0"/>
	<vType id="type88" maxSpeed="0.5684355018686126"/>
	<vType id="type89" maxSpeed="0.4446054986172117"/>
	<vType id="type90" maxSpeed="1.1772210592974361"/>
	<vType id="type91" maxSpeed="0.18670923197709322"/>
	<vType id="type92" maxSpeed="0.2189271565157678"/>
	<vType id="type93" maxSpeed="0.01470555495709002"/>
	<vType id="type94" maxSpeed="1.0"/>
	<vType id="type95" maxSpeed="1.0502455785019364"/>
	<vType id="type96" maxSpeed="0.5337912701366367"/>
	<vType id="type97" maxSpeed="1.137336493226274"/>
	<vType id="type98" maxSpeed="0.26776806495744715"/>
	<vType id="type99" maxSpeed="0.2681167099320792"/>
	<vType id="type100" maxSpeed="0.9147995199774103"/>
	<vType id="type101" maxSpeed="1.0"/>
	<vType id="type102" maxSpeed="1.1822367538564726"/>
	<vType id="type103" maxSpeed="0.13756621136915329"/>
	<vType id="type104" maxSpeed="1.0"/>
	<vType id="type105" maxSpeed="1.0"/>
	<vType id="type106" maxSpeed="0.6278051389660348"/>
	<vType id="type107" maxSpeed="0.08122213718549698"/>
	<vType id="type108" maxSpeed="0.7991388300617531"/>
	<vType id="type109" maxSpeed="0.03045213567616447"/>
	<vType id="type110" maxSpeed="1.0"/>
	<vType id="type111" maxSpeed="0.017070563996909607"/>
	<vType id="type112" maxSpeed="1.0726412676640977"/>
	<vType id="type113" maxSpeed="0.5418296709148356"/>
	<vType id="type114" maxSpeed="0.8269727776695414"/>
	<vType id="type115" maxSpeed="0.6388106817896303"/>
	<vType id="type116" maxSpeed="1.0"/>
	<vType id="type117" maxSpeed="0.7059688914228701"/>
	<vType id="type118" maxSpeed="0.038729348531851955"/>
	<vType id="type119" maxSpeed="1.0"/>
	<vType id="type120" maxSpeed="1.0"/>
	<vType id="type121" maxSpeed="1.0"/>
	<vType id="type122" maxSpeed="0.5583563409786756"/>
	<vType id="type123" maxSpeed="0.532124205692316"/>
	<vType id="type124" maxSpeed="0.5762337156612857"/>
	<vType id="type125" maxSpeed="1.0"/>
	<vType id="type126" maxSpeed="1.0360931626356484"/>
	<vType id="type127" maxSpeed="0.5922058823529412"/>
	<vType id="type128" maxSpeed="0.9015737303039448"/>
	<vType id="type129" maxSpeed="1.0"/>
	<vType id="type130" maxSpeed="0.27998688756977047"/>
	<vType id="type131" maxSpeed="0.7341347381864622"/>
	<vType id="type132" maxSpeed="1.3541566980346282"/>
	<vType id="type133" maxSpeed="0.8580474200548808"/>
	<vType id="type134" maxSpeed="0.72418134365457"/>
	<vType id="type135" maxSpeed="0.06116906270151348"/>
	<vType id="type136" maxSpeed="0.09279901890059156"/>
	<vType id="type137" maxSpeed="0.8181160095301219"/>
	<vType id="type138" maxSpeed="1.100718533113229"/>
	<vType id="type139" maxSpeed="0.5346547259387138"/>
	<vType id="type140" maxSpeed="0.7256520792905206"/>
	<vType id="type141" maxSpeed="1.0"/>
	<vType id="type142" maxSpeed="0.672156590182875"/>
	<vType id="type143" maxSpeed="0.7107822019926887"/>
	<vType id="type144" maxSpeed="0.7320657487152856"/>
	<vType id="type145" maxSpeed="0.9969679481488066"/>
	<vType id="type146" maxSpeed="0.7237697021980197"/>
	<vType id="type147" maxSpeed="0.8820104211125335"/>
	<vType id="type148" maxSpeed="0.08020981713185754"/>
	<vType id="type149" maxSpeed="1.1546016358679188"/>
	<vType id="type150" maxSpeed="0.7329563879095905"/>
	<vType id="type151" maxSpeed="0.6584241740127564"/>
	<vType id="type152" maxSpeed="0.0183075290859722"/>
	<vType id="type153" maxSpeed="1.0"/>
	<vType id="type154" maxSpeed="1.1916935600317657"/>
	<vType id="type155" maxSpeed="0.8070021865889209"/>
	<vType id="type156" maxSpeed="0.34665915755539595"/>
	<vType id="type157" maxSpeed="0.11161858252392196"/>
	<vType id="type158" maxSpeed="0.9174697303987508"/>
	<vType id="type159" maxSpeed="0.012523027560971211"/>
	<vType id="type160" maxSpeed="0.9041598443408345"/>
	<vType id="type161" maxSpeed="9.410517241379308"/>
	<vType id="type162" maxSpeed="1.0"/>
	<vType id="type163" maxSpeed="8.198616666666666"/>
	<vType id="type164" maxSpeed="0.4673853300925201"/>
	<vType id="type165" maxSpeed="6.25825870646766"/>
	<vType id="type166" maxSpeed="0.525141895988578"/>
	<vType id="type167" maxSpeed="1.0"/>
	<vType id="type168" maxSpeed="8.0"/>
	<vType id="type169" maxSpeed="0.15022019515491175"/>
	<vType id="type170" maxSpeed="8.173527454242928"/>
	<vType id="type171" maxSpeed="8.33757627118644"/>
	<vType id="type172" maxSpeed="1.0"/>
	<vType id="type173" maxSpeed="9.56632841328413"/>
	<vType id="type174" maxSpeed="8.731761744966443"/>
	<vType id="type175" maxSpeed="8.0"/>
	<vType id="type176" maxSpeed="1.6880721649484534"/>
	<vType id="type177" maxSpeed="8.311827411167512"/>
	<vType id="type178" maxSpeed="6.80278431372549"/>
	<vType id="type179" maxSpeed="1.4854831465985945"/>
	<vType id="type180" maxSpeed="1.2818234142429152"/>
	<vType id="type181" maxSpeed="8.536836879432624"/>
	<vType id="type182" maxSpeed="1.1824273790496496"/>
	<vType id="type183" maxSpeed="0.30176159416568227"/>
	<vType id="type184" maxSpeed="1.4614143222506393"/>
	<vType id="type185" maxSpeed="5.952553606237817"/>
	<vType id="type186" maxSpeed="0.7089569102176104"/>
	<vType id="type187" maxSpeed="8.615432098765432"/>
	<vType id="type188" maxSpeed="0.09815376609860804"/>
	<vType id="type189" maxSpeed="0.28667150211906584"/>
	<vType id="type190" maxSpeed="0.1122057707902791"/>
	<vType id="type191" maxSpeed="0.45798440165732396"/>
	<vType id="type192" maxSpeed="0.7054346629144748"/>
	<vType id="type193" maxSpeed="1.0"/>
	<vType id="type194" maxSpeed="1.3201527963210204"/>
	<vType id="type195" maxSpeed="8.340050933786076"/>
	<vType id="type196" maxSpeed="8.709797395079596"/>
	<vType id="type197" maxSpeed="0.6981579321119159"/>
	<vType id="type198" maxSpeed="0.4662299174294311"/>
	<vType id="type199" maxSpeed="6.692748299319728"/>
	<vType id="type200" maxSpeed="8.0"/>
	<vType id="type201" maxSpeed="1.0"/>
	<vType id="type202" maxSpeed="0.7543569177885991"/>
	<vType id="type203" maxSpeed="9.254819624819625"/>
	<vType id="type204" maxSpeed="0.488456302278627"/>
	<vType id="type205" maxSpeed="0.10845930483282062"/>
	<vType id="type206" maxSpeed="0.6005137507314221"/>
	<vType id="type207" maxSpeed="8.0"/>
	<vType id="type208" maxSpeed="0.06372609849953764"/>
	<vType id="type209" maxSpeed="8.408837606837608"/>
	<vType id="type210" maxSpeed="7.687464788732393"/>
	<vType id="type211" maxSpeed="1.5713524345017356"/>
	<vType id="type212" maxSpeed="9.741029810298103"/>
	<vType id="type213" maxSpeed="0.5720965164589326"/>
	<vType id="type214" maxSpeed="1.4624571940833702"/>
	<vType id="type215" maxSpeed="1.0353136788346586"/>
	<vType id="type216" maxSpeed="0.6999194779051264"/>
	<vType id="type217" maxSpeed="0.5024609686609688"/>
	<vType id="type218" maxSpeed="2.4664787614132573"/>
	<vType id="type219" maxSpeed="1.4320183118564644"/>
	<vType id="type220" maxSpeed="1.6215151995938302"/>
	<vType id="type221" maxSpeed="8.911539855072464"/>
	<vType id="type222" maxSpeed="2.1083518321912327"/>
	<vType id="type223" maxSpeed="1.20953893924662"/>
	<vType id="type224" maxSpeed="9.845848056537102"/>
	<vType id="type225" maxSpeed="2.390095000631232"/>
	<vType id="type226" maxSpeed="1.3069738299420908"/>
	<vType id="type227" maxSpeed="3.9297446808510634"/>
	<vType id="type228" maxSpeed="1.2129812310414567"/>
	<vType id="type229" maxSpeed="1.9109527754763884"/>
	<vType id="type230" maxSpeed="2.218795165434762"/>
	<vType id="type231" maxSpeed="3.7587363834422662"/>
	<vType id="type232" maxSpeed="2.096136473003754"/>
	<vType id="type233" maxSpeed="8.0"/>
	<vType id="type234" maxSpeed="0.9294295064567486"/>
	<vType id="type235" maxSpeed="1.6145882466653785"/>
	<vType id="type236" maxSpeed="8.0"/>
	<vType id="type237" maxSpeed="7.827573696145125"/>
	<vType id="type238" maxSpeed="0.4730497251915004"/>
	<vType id="type239" maxSpeed="1.7265895512902"/>
	<vType id="type240" maxSpeed="8.0"/>
	<vType id="type241" maxSpeed="1.557978397602661"/>
	<vType id="type242" maxSpeed="9.691739130434783"/>
	<vType id="type243" maxSpeed="2.252135345534007"/>
	<vType id="type244" maxSpeed="1.0120715296165983"/>
	<vType id="type245" maxSpeed="0.6722101314588895"/>
	<vType id="type246" maxSpeed="9.410517241379308"/>
	<vType id="type247" maxSpeed="2.365575404287326"/>
	<vType id="type248" maxSpeed="7.037439198855508"/>
	<vType id="type249" maxSpeed="1.6009207968901842"/>
	<vType id="type250" maxSpeed="1.477714820982514"/>
	<vType id="type251" maxSpeed="1.7609291957735098"/>
	<vType id="type252" maxSpeed="2.409486841636694"/>
	<vType id="type253" maxSpeed="0.6380289020880534"/>
	<vType id="type254" maxSpeed="1.2289212966975813"/>
	<vType id="type255" maxSpeed="2.319008920418627"/>
	<vType id="type256" maxSpeed="1.7541646619510975"/>
	<vType id="type257" maxSpeed="1.2911597533836787"/>
	<vType id="type258" maxSpeed="0.5697849462365592"/>
	<vType id="type259" maxSpeed="1.8051120524238815"/>
	<vType id="type260" maxSpeed="1.247208477222196"/>
	<vType id="type261" maxSpeed="4.993873668188736"/>
	<vType id="type262" maxSpeed="1.1384800000000002"/>
	<vType id="type263" maxSpeed="0.5857295666483818"/>
	<vType id="type264" maxSpeed="1.0735666353993796"/>
	<vType id="type265" maxSpeed="8.0"/>
	<vType id="type266" maxSpeed="0.6425852884506401"/>
	<vType id="type267" maxSpeed="1.450147351802429"/>
	<vType id="type268" maxSpeed="0.8171422162404665"/>
	<vType id="type269" maxSpeed="2.3658016546998586"/>
	<vType id="type270" maxSpeed="1.4203873020801006"/>
	<vType id="type271" maxSpeed="1.6585075932257292"/>
	<vType id="type272" maxSpeed="8.0"/>
	<vType id="type273" maxSpeed="0.8069604706747567"/>
	<vType id="type274" maxSpeed="1.597939756351211"/>
	<vType id="type275" maxSpeed="1.424353402890782"/>
	<vType id="type276" maxSpeed="1.341745393888847"/>
	<vType id="type277" maxSpeed="1.0"/>
	<vType id="type278" maxSpeed="1.3773429764851484"/>
	<vType id="type279" maxSpeed="0.6359182860431143"/>
	<vType id="type280" maxSpeed="1.9457031310398152"/>
	<vType id="type281" maxSpeed="0.8605025888581777"/>
	<vType id="type282" maxSpeed="7.953824884792627"/>
	<vType id="type283" maxSpeed="8.0"/>
	<vType id="type284" maxSpeed="1.0454521126760565"/>
	<vType id="type285" maxSpeed="1.4807944267905155"/>
	<vType id="type286" maxSpeed="8.228291457286431"/>
	<vType id="type287" maxSpeed="8.0"/>
	<vType id="type288" maxSpeed="6.8321805555555555"/>
	<vType id="type289" maxSpeed="1.6386794601433996"/>
	<vType id="type290" maxSpeed="0.6674395533605324"/>
	<vType id="type291" maxSpeed="2.615215864490807"/>
	<vType id="type292" maxSpeed="8.0"/>
	<vType id="type293" maxSpeed="1.2621247892074197"/>
	<vType id="type294" maxSpeed="7.14853021978022"/>
	<vType id="type295" maxSpeed="1.5319398065831136"/>
	<vType id="type296" maxSpeed="1.0541965956688353"/>
	<vType id="type297" maxSpeed="1.1169505260164914"/>
	<vType id="type298" maxSpeed="8.570165289256197"/>
	<vType id="type299" maxSpeed="1.6067878103837476"/>
	<vType id="type300" maxSpeed="8.578615751789977"/>
	<vType id="type301" maxSpeed="1.9918486916951081"/>
	<vType id="type302" maxSpeed="8.0"/>
	<vType id="type303" maxSpeed="9.321233396584438"/>
	<vType id="type304" maxSpeed="1.589603510351035"/>
	<vType id="type305" maxSpeed="9.650864440078584"/>
	<vType id="type306" maxSpeed="2.241107599223372"/>
	<vType id="type307" maxSpeed="0.9292867480777928"/>
	<vType id="type308" maxSpeed="1.0"/>
	<vType id="type309" maxSpeed="1.7726602593163476"/>
	<vType id="type310" maxSpeed="1.6846628978224458"/>
	<vType id="type311" maxSpeed="2.2263186813186815"/>
	<vType id="type312" maxSpeed="1.3155038355904922"/>
	<vType id="type313" maxSpeed="4.373868194842407"/>
	<vType id="type314" maxSpeed="8.0"/>
	<vType id="type315" maxSpeed="2.216402877697842"/>
	<vType id="type316" maxSpeed="1.5880805699091962"/>
	<vType id="type317" maxSpeed="9.377813411078716"/>
	<vType id="type318" maxSpeed="9.258930041152263"/>
	<vType id="type319" maxSpeed="1.3556774340828672"/>
	<vType id="type320" maxSpeed="1.4694828744123578"/>
	<vType id="type321" maxSpeed="1.743508864906534"/>
	<vType id="type322" maxSpeed="8.747809667673716"/>
	<vType id="type323" maxSpeed="8.0"/>
	<vType id="type324" maxSpeed="9.664381139489194"/>
	<vType id="type325" maxSpeed="0.6658185476495335"/>
	<vType id="type326" maxSpeed="6.532762284196547"/>
	<vType id="type327" maxSpeed="0.6378061343947553"/>
	<vType id="type328" maxSpeed="6.823448275862068"/>
	<vType id="type329" maxSpeed="7.129231884057971"/>
	<vType id="type330" maxSpeed="9.509573170731707"/>
	<vType id="type331" maxSpeed="1.3743561208267092"/>
	<vType id="type332" maxSpeed="1.531993353783231"/>
	<vType id="type333" maxSpeed="0.7785216295674087"/>
	<vType id="type334" maxSpeed="7.8920582524271845"/>
	<vType id="type335" maxSpeed="2.6316674374389817"/>
	<vType id="type336" maxSpeed="0.9581127232727462"/>
	<vType id="type337" maxSpeed="0.45615887207702904"/>
	<vType id="type338" maxSpeed="1.4232899157492123"/>
	<vType id="type339" maxSpeed="1.0"/>
	<vType id="type340" maxSpeed="8.0"/>
	<vType id="type341" maxSpeed="8.090740131578947"/>
	<vType id="type342" maxSpeed="0.8859615075323003"/>
	<vType id="type343" maxSpeed="7.388928571428572"/>
	<vType id="type344" maxSpeed="1.6044814483683505"/>
	<vType id="type345" maxSpeed="8.551453333333333"/>
	<vType id="type346" maxSpeed="8.945034867503487"/>
	<vType id="type347" maxSpeed="8.0"/>
	<vType id="type348" maxSpeed="2.882278621454824"/>
	<vType id="type349" maxSpeed="8.0"/>
	<vType id="type350" maxSpeed="9.498356940509915"/>
	<vType id="type351" maxSpeed="8.0"/>
	<vType id="type352" maxSpeed="7.510183206106871"/>
	<vType id="type353" maxSpeed="1.4652801497251142"/>
	<vType id="type354" maxSpeed="1.7260368328587883"/>
	<vType id="type355" maxSpeed="8.0"/>
	<vType id="type356" maxSpeed="7.650342146189736"/>
	<vType id="type357" maxSpeed="7.79704204204204"/>
	<vType id="type358" maxSpeed="0.2357615230460922"/>
	<vType id="type359" maxSpeed="1.0795770251287655"/>
	<vType id="type360" maxSpeed="8.0"/>
	<vType id="type361" maxSpeed="8.440360824742266"/>
	<vType id="type362" maxSpeed="8.0"/>
	<vType id="type363" maxSpeed="7.108627167630058"/>
	<vType id="type364" maxSpeed="0.897447979254949"/>
	<vType id="type365" maxSpeed="8.0"/>
	<vType id="type366" maxSpeed="9.594316406249998"/>
	<vType id="type367" maxSpeed="9.476715542521994"/>
	<vType id="type368" maxSpeed="8.0"/>
	<vType id="type369" maxSpeed="0.055845160422412055"/>
	<vType id="type370" maxSpeed="9.05280991735537"/>
	<vType id="type371" maxSpeed="1.940405740378343"/>
	<vType id="type372" maxSpeed="7.54634375"/>
	<vType id="type373" maxSpeed="0.03844377510040161"/>
	<vType id="type374" maxSpeed="8.0"/>
	<vType id="type375" maxSpeed="1.6221961592132363"/>
	<vType id="type376" maxSpeed="1.5253987397520155"/>
	<vType id="type377" maxSpeed="1.9458141447368413"/>
	<vType id="type378" maxSpeed="3.412351529694061"/>
	<vType id="type379" maxSpeed="7.784928684627574"/>
	<vType id="type380" maxSpeed="2.8806578854188807"/>
	<vType id="type381" maxSpeed="8.06615763546798"/>
	<vType id="type382" maxSpeed="2.7559853249475887"/>
	<vType id="type383" maxSpeed="2.282772819900217"/>
	<vType id="type384" maxSpeed="9.83834"/>
	<vType id="type385" maxSpeed="2.0433776913875605"/>
	<vType id="type386" maxSpeed="8.0"/>
	<vType id="type387" maxSpeed="1.9812794276042467"/>
	<vType id="type388" maxSpeed="2.7955498094719653"/>
	<vType id="type389" maxSpeed="1.6498099193355165"/>
	<vType id="type390" maxSpeed="8.0"/>
	<vType id="type391" maxSpeed="7.5457603686635935"/>
	<vType id="type392" maxSpeed="8.36593537414966"/>
	<vType id="type393" maxSpeed="9.664381139489194"/>
	<vType id="type394" maxSpeed="8.54406887755102"/>
	<vType id="type395" maxSpeed="1.4402129673450068"/>
	<vType id="type396" maxSpeed="3.885600315955766"/>
	<vType id="type397" maxSpeed="1.5053811789841705"/>
	<vType id="type398" maxSpeed="8.0"/>
	<vType id="type399" maxSpeed="3.016236133122028"/>
	<vType id="type400" maxSpeed="0.3193849258576818"/>
	<vType id="type401" maxSpeed="8.0"/>
	<vType id="type402" maxSpeed="1.583438005276147"/>
	<vType id="type403" maxSpeed="6.4109012345679"/>
	<vType id="type404" maxSpeed="8.0"/>
	<vType id="type405" maxSpeed="8.531360655737705"/>
	<vType id="type406" maxSpeed="9.109574074074073"/>
	<vType id="type407" maxSpeed="1.6075934993228458"/>
	<vType id="type408" maxSpeed="7.675453124999999"/>
	<vType id="type409" maxSpeed="8.0"/>
	<vType id="type410" maxSpeed="6.822624999999999"/>
	<vType id="type411" maxSpeed="9.803039513677811"/>
	<vType id="type412" maxSpeed="1.7075358803315144"/>
	<vType id="type413" maxSpeed="2.6342560989577373"/>
	<vType id="type414" maxSpeed="1.3046005936249838"/>
	<vType id="type415" maxSpeed="3.8169889763779516"/>
	<vType id="type416" maxSpeed="2.308009287547355"/>
	<vType id="type417" maxSpeed="2.362468795164893"/>
	<vType id="type418" maxSpeed="6.756071733561059"/>
	<vType id="type419" maxSpeed="8.0"/>
	<vType id="type420" maxSpeed="6.726463730569947"/>
	<vType id="type421" maxSpeed="9.130650557620816"/>
	<vType id="type422" maxSpeed="8.0"/>
	<vType id="type423" maxSpeed="8.0"/>
	<vType id="type424" maxSpeed="2.34663056036973"/>
	<vType id="type425" maxSpeed="2.6039458955223878"/>
	<vType id="type426" maxSpeed="8.0"/>
	<vType id="type427" maxSpeed="8.0"/>
	<vType id="type428" maxSpeed="7.160363901018923"/>
	<vType id="type429" maxSpeed="8.469465517241378"/>
	<vType id="type430" maxSpeed="8.056452328159644"/>
	<vType id="type431" maxSpeed="4.624912383177569"/>
	<vType id="type432" maxSpeed="1.2164025477707001"/>
	<vType id="type433" maxSpeed="6.401143911439115"/>
	<vType id="type434" maxSpeed="8.0"/>
	<vType id="type435" maxSpeed="2.1325807722616235"/>
	<vType id="type436" maxSpeed="9.650864440078584"/>
	<vType id="type437" maxSpeed="8.0"/>
	<vType id="type438" maxSpeed="8.0"/>
	<vType id="type439" maxSpeed="3.149715082068752"/>
	<vType id="type440" maxSpeed="1.4211414790996784"/>
	<vType id="type441" maxSpeed="1.0"/>
	<vType id="type442" maxSpeed="9.943906882591092"/>
	<vType id="type443" maxSpeed="7.0578879310344815"/>
	<vType id="type444" maxSpeed="8.200818030050081"/>
	<vType id="type445" maxSpeed="7.844154078549847"/>
	<vType id="type446" maxSpeed="7.480918803418802"/>
	<vType id="type447" maxSpeed="7.546465390279823"/>
	<vType id="type448" maxSpeed="7.231450488145048"/>
	<vType id="type449" maxSpeed="1.0"/>
	<vType id="type450" maxSpeed="0.28098208360982085"/>
	<vType id="type451" maxSpeed="2.893505564387917"/>
	<vType id="type452" maxSpeed="2.8408874281018903"/>
	<vType id="type453" maxSpeed="2.8806000000000003"/>
	<vType id="type454" maxSpeed="4.193582949308755"/>
	<vType id="type455" maxSpeed="8.173527454242928"/>
	<vType id="type456" maxSpeed="8.0"/>
	<vType id="type457" maxSpeed="3.4325000000000006"/>
	<vType id="type458" maxSpeed="7.1810245901639345"/>
	<vType id="type459" maxSpeed="9.797093821510297"/>
	<vehicle id="244250733" type="type0" depart="0" departLane="free" departSpeed="max" departPos="last">
		<route id="244250733" edges="29473090 -29473090 29473090 -29473090 29473090 22103866#1 -22103866#1 22103866#1 29473424 -12869939#3 -12869939#2 12869939#2 -12869939#2 -12869939#1 479495084#2 -479495084#2 479495084#2 601083337 601083336#0 601083336#1 -601083336#1 601083336#1 29473678#1 -29473678#1 29473678#1 29473678#2 gneE43 360632518#1 360632520 360632524#2 360632524#3 360632524#4 -29474860#1 -29474860#0 -23294019#2 -23294019#1 -23294019#0 -29404961 -29404935#0 29404935#0 -29404935#0 -30123973#5 -30123973#4 gneE5 -527004184#0 527004184#0 gneE4 -593311097#4 -17162469#0 -29410858 22103865 -29473090 29473090 22103866#1 -22103866#1 22103866#1 29473424 -12869939#3 -12869939#2 -12869939#1 479495084#2 -479495084#2 479495084#2 601083337 601083336#0 601083336#1 -601083336#1 601083336#1 29473678#1 29473678#2 -29473678#2 29473678#2 gneE43 360632518#1 360632520 360632524#2 360632524#3 360632524#4 360632524#5 -360632524#5 -29474860#1 -29474860#0 -23294019#2 -23294019#1 23294019#1 -23294019#1 -23294019#0 23294019#0 -23294019#0 -29404961 -29404935#0 -30123973#5 -30123973#4 gneE5 -527004184#0 29473090 -29473090 29473090 -29473090 29473090 22103866#1 -22103866#1 22103866#1 29473424 -12869939#3 -12869939#2 12869939#2 -12869939#2 -12869939#1 479495084#2 601083337 601083336#0 601083336#1 29473678#1 29473678#2 gneE43 360632518#1 360632520 360632524#2 360632524#3 360632524#4 360632524#5 -360632524#5 -29474860#1 -29474860#0 29474860#0 -29474860#0 -23294019#2 -23294019#1 -29980149 29980149 -23294019#0 -29404961 -29404935#0 -30123973#5 -30123973#4 gneE5 -527004184#0 29473090 22103866#1 -22103866#1 22103866#1 29473424 -12869939#3 -12869939#2 -12869939#1 479495084#2 -479495084#2 479495084#2 601083337 601083336#0 15498784#1 -15498784#1 15498784#1 -17162472#1 -17162472#0 29473678#2 gneE43 360632518#1 360632520 360632524#2 360632524#3 360632524#4 360632524#5 -360632524#5 -29474860#1 -29474860#0 29474860#0 -29474860#0 -23294019#2 -23294019#1 -29980149 29980149 -23294019#0 23294019#0 -23294019#0 -29404961 -29404935#0 -30123973#5 -30123973#4 gneE5 -527004184#0 29473090 -29473090 29473090 22103866#1 -22103866#1 22103866#1 29473424 -12869939#3 -12869939#2 -12869939#1 12869939#1 -12869939#1 479495084#2 -479495084#2 479495084#2 601083337 601083336#0 601083336#1 -601083336#1 601083336#1 29473678#1 29473678#2 gneE43 360632518#1 360632520 360632524#2 360632524#3 360632524#4 -29474860#1 -29474860#0 -29472010#1 -29472010#0 -29407365#3 -29407365#2 -29407365#1 gneE34 -17163948#0 -195582876 195582876 -195582876 -30123973#5 -30123973#4 gneE5 -527004184#0 29473090 22103866#1 -22103866#1"/>
	</vehicle>
	<vehicle id="244615809" type="type1" depart="0" departLane="free" departSpeed="max" departPos="last">
		<route id="244615809" edges="360632524#0 -360632526 360632526 360632524#1 -360632520 360632520 360632524#2 360632524#3 360632524#4 360632524#5 195582885#0 -195582885#0 -360632524#5 -29474860#1 -404425491"/>
	</vehicle>
	<vehicle id="244300678" type="type2" depart="39" departLane="free" departSpeed="max" departPos="last">
		<route id="244300678" edges="360632516 -360632524#3 360632524#3 -360632516 360632516 -360632524#3 360632524#3 -360632516 360632516 -360632524#3 360632524#3 -360632516 360632516 -360632524#3 360632524#3 -360632516 360632516 -360632524#3 360632524#3 -360632516 360632516 -360632524#3 360632524#3 -360632524#3 360632524#3 -360632516 360632516 -360632524#3 360632524#3 -360632524#3 360632524#3 -360632516 360632516 -360632524#3 360632524#3 -360632516 360632516 -360632524#3 360632524#3 -360632516 360632516 -360632524#3 360632524#3 -360632516 360632516 -360632524#3 360632524#3 -360632516 360632516 -360632524#3 360632524#3 -360632516 360632516 -360632524#3 360632524#3 -360632524#3 360632524#3 -360632516 360632516 -360632524#3 360632524#3 -360632516 360632516 -360632524#3 360632524#3 -360632516 360632516 -360632524#3 360632524#3 -360632516 360632516 -360632524#3 360632524#3 -360632516 360632516 -360632524#3 360632524#3 -360632516 360632516 -360632524#3 360632524#3 -360632516 360632516 -360632524#3 360632524#3 -360632516 360632516 -360632524#3 360632524#3 -360632516 360632516 -360632524#3 360632524#3 -360632516 360632516 -360632524#3 360632524#3 -360632516 360632516 -360632524#3 360632524#3 -360632516 360632516 -360632524#3 360632524#3 -360632516 360632516 -360632524#3 360632524#3 -360632516 360632516 -360632524#3 360632524#3 -360632516 360632516 -360632524#3 360632524#3 -360632516 360632516 -360632524#3 360632524#3 -360632516 360632516 -360632524#3 360632524#3 -360632516 360632516 -360632524#3 360632524#3 -360632516 360632516 -360632524#3 360632524#3 -360632516 360632516 -360632524#3 360632524#3 -360632516 360632516 -360632524#3 360632524#3 -360632516 360632516 -360632524#3 360632524#3 -360632524#3 360632524#3 -360632516 360632516 -360632524#3 360632524#3 -360632516 360632516 -360632524#3 360632524#3 -360632516 360632516 -360632524#3 360632524#3 -360632524#3 360632524#3 -360632516 360632516 -360632524#3 360632524#3 -360632516 360632516 -360632524#3 360632524#3 -360632516 360632516 -360632524#3 360632524#3 -360632516 360632516 -360632524#3 360632524#3 -360632516 360632516 -360632524#3 360632524#3 -360632516 360632516 -360632524#3 360632524#3 -360632516 360632516 -360632524#3 360632524#3 -360632516 360632516 -360632524#3 360632524#3 -360632516 360632516 -360632524#3 360632524#3 -360632524#3 360632524#3 -360632516 360632516 -360632524#3 360632524#3 -360632516 360632516 -360632524#3 360632524#3 -360632524#3 360632524#3 -360632516 360632516 -360632524#3 360632524#3 -360632516 360632516 -360632524#3 360632524#3 -360632516 360632516 -360632524#3 360632524#3 -360632516 360632516 -360632524#3 360632524#3 -360632516 360632516 -360632524#3 360632524#3 -360632516 360632516 -360632524#3 360632524#3 -360632516 360632516 -360632524#3 360632524#3 -360632516 360632516 -360632524#3 360632524#3 -360632516 360632516 -360632524#3 360632524#3 -360632516 360632516 -360632524#3 360632524#3 -360632516 360632516 -360632524#3 360632524#3 -360632516 360632516 -360632524#3 360632524#3 -360632516 360632516 -360632524#3 360632524#3 -360632516 360632516 -360632524#3 360632524#3 -360632516 360632516 -360632524#3 360632524#3 -360632516 360632516 -360632524#3 360632524#3 -360632516 360632516 -360632524#3 360632524#3 -360632516 360632516 -360632524#3 360632524#3"/>
	</vehicle>
	<vehicle id="244780646" type="type3" depart="39" departLane="free" departSpeed="max" departPos="last">