<?xml version="1.0" encoding="UTF-8"?>
<routes xmlns:xsi="http://www.w3.org/2001/XMLSchema-instance" xsi:noNamespaceSchemaLocation="http://sumo.sf.net/xsd/routes_file.xsd">
	<vType id="type0" maxSpeed="0.21687648456057004"/>
	<vType id="type1" maxSpeed="0.12391970802919709"/>
	<vType id="type2" maxSpeed="1.0"/>
	<vType id="type3" maxSpeed="0.11202089454782893"/>
	<vType id="type4" maxSpeed="0.17036531513448414"/>
	<vType id="type5" maxSpeed="1.397609618104668"/>
	<vType id="type6" maxSpeed="0.13088801711840228"/>
	<vType id="type7" maxSpeed="0.0650431654676259"/>
	<vType id="type8" maxSpeed="1.6928058222359863"/>
	<vType id="type9" maxSpeed="1.8020224719101121"/>
	<vType id="type10" maxSpeed="1.6673809523809522"/>
	<vType id="type11" maxSpeed="0.09541494555013143"/>
	<vType id="type12" maxSpeed="0.05973958333333334"/>
	<vType id="type13" maxSpeed="0.12798209623274898"/>
	<vType id="type14" maxSpeed="0.04589001447178003"/>
	<vType id="type15" maxSpeed="0.0750864387245486"/>
	<vType id="type16" maxSpeed="0.15723601333827344"/>
	<vType id="type17" maxSpeed="0.04532170542635659"/>
	<vType id="type18" maxSpeed="0.2590631505898682"/>
	<vType id="type19" maxSpeed="0.1643435144783816"/>
	<vType id="type20" maxSpeed="0.11848592803705023"/>
	<vType id="type21" maxSpeed="0.04874711760184473"/>
	<vType id="type22" maxSpeed="0.4728702290076336"/>
	<vType id="type23" maxSpeed="0.1567715660866346"/>
	<vType id="type24" maxSpeed="2.6526054705609643"/>
	<vType id="type25" maxSpeed="0.2434129170492807"/>
	<vType id="type26" maxSpeed="0.3652093180283592"/>
	<vType id="type27" maxSpeed="0.1571195853387634"/>
	<vType id="type28" maxSpeed="1.5621849745585155"/>
	<vType id="type29" maxSpeed="0.0845905891070767"/>
	<vType id="type30" maxSpeed="0.48020155038759693"/>
	<vType id="type31" maxSpeed="0.17592528536838464"/>
	<vType id="type32" maxSpeed="0.3429225645295587"/>
	<vType id="type33" maxSpeed="0.6587620817843867"/>
	<vType id="type34" maxSpeed="0.10687246963562752"/>
	<vType id="type35" maxSpeed="0.2940939349112426"/>
	<vType id="type36" maxSpeed="0.07504709576138148"/>
	<vType id="type37" maxSpeed="0.09290513104466593"/>
	<vType id="type38" maxSpeed="0.05965672676837726"/>
	<vType id="type39" maxSpeed="0.09886770428015565"/>
	<vType id="type40" maxSpeed="0.07128008752735229"/>
	<vType id="type41" maxSpeed="0.19777659196015654"/>
	<vType id="type42" maxSpeed="8.615432098765432"/>
	<vType id="type43" maxSpeed="0.17295371814872593"/>
	<vType id="type44" maxSpeed="0.5471417653802063"/>
	<vType id="type45" maxSpeed="0.13807750188111362"/>
	<vType id="type46" maxSpeed="8.0"/>
	<vType id="type47" maxSpeed="0.13287654814222932"/>
	<vType id="type48" maxSpeed="0.06599270072992701"/>
	<vType id="type49" maxSpeed="0.14270463975858166"/>
	<vType id="type50" maxSpeed="0.06544313427158616"/>
	<vType id="type51" maxSpeed="0.12755845151399003"/>
	<vType id="type52" maxSpeed="0.2915065982404692"/>
	<vType id="type53" maxSpeed="0.15710266159695818"/>
	<vType id="type54" maxSpeed="0.15694588584136399"/>
	<vType id="type55" maxSpeed="0.506646297627606"/>
	<vType id="type56" maxSpeed="1.7837068557919622"/>
	<vType id="type57" maxSpeed="0.6541922773837667"/>
	<vType id="type58" maxSpeed="0.28781397032211364"/>
	<vType id="type59" maxSpeed="0.2979505432746347"/>
	<vType id="type60" maxSpeed="0.2831739130434782"/>
	<vType id="type61" maxSpeed="0.06778447359092521"/>
	<vType id="type62" maxSpeed="0.05048042704626334"/>
	<vType id="type63" maxSpeed="0.12315560391730142"/>
	<vType id="type64" maxSpeed="5.362535828025477"/>
	<vType id="type65" maxSpeed="0.04037170696499459"/>
	<vType id="type66" maxSpeed="0.11533657182512144"/>
	<vType id="type67" maxSpeed="0.042911392405063295"/>
	<vType id="type68" maxSpeed="0.2689624060150376"/>
	<vType id="type69" maxSpeed="0.1469767441860465"/>
	<vType id="type70" maxSpeed="0.29225652333700847"/>
	<vType id="type71" maxSpeed="1.0"/>
	<vType id="type72" maxSpeed="0.03751454051958123"/>
	<vType id="type73" maxSpeed="0.03265922993882692"/>
	<vType id="type74" maxSpeed="0.461905303030303"/>
	<vType id="type75" maxSpeed="0.043853390827126616"/>
	<vType id="type76" maxSpeed="0.31063671875"/>
	<vType id="type77" maxSpeed="0.310353889278206"/>
	<vType id="type78" maxSpeed="0.5549883720930232"/>
	<vType id="type79" maxSpeed="0.13866569978245105"/>
	<vType id="type80" maxSpeed="0.30574009996155327"/>
	<vType id="type81" maxSpeed="0.732754590984975"/>
	<vType id="type82" maxSpeed="0.22070265978562922"/>
	<vType id="type83" maxSpeed="1.537325509573811"/>
	<vType id="type84" maxSpeed="0.31825862752875844"/>
	<vType id="type85" maxSpeed="2.3373351330505208"/>
	<vType id="type86" maxSpeed="0.08814814814814814"/>
	<vType id="type87" maxSpeed="0.05049363057324841"/>
	<vType id="type88" maxSpeed="0.9211435973353072"/>
	<vType id="type89" maxSpeed="0.22451298701298703"/>
	<vType id="type90" maxSpeed="0.06640293323041298"/>
	<vType id="type91" maxSpeed="0.04786415094339623"/>
	<vType id="type92" maxSpeed="0.14952964426877471"/>
	<vType id="type93" maxSpeed="0.06490003772161448"/>
	<vType id="type94" maxSpeed="0.04664950349393159"/>
	<vType id="type95" maxSpeed="0.3860763888888889"/>
	<vType id="type96" maxSpeed="0.04329334365325078"/>
	<vType id="type97" maxSpeed="0.5659565217391304"/>
	<vType id="type98" maxSpeed="0.20399524375743164"/>
	<vType id="type99" maxSpeed="0.5659565217391304"/>
	<vType id="type100" maxSpeed="0.16783194609591756"/>
	<vType id="type101" maxSpeed="1.0383393763596809"/>
	<vType id="type102" maxSpeed="0.1241007462686567"/>
	<vType id="type103" maxSpeed="0.6946569972559781"/>
	<vType id="type104" maxSpeed="0.1385342261904762"/>
	<vType id="type105" maxSpeed="0.5344792833146697"/>
	<vType id="type106" maxSpeed="0.33251515151515154"/>
	<vType id="type107" maxSpeed="0.144679029957204"/>
	<vType id="type108" maxSpeed="0.2924204081632653"/>
	<vType id="type109" maxSpeed="0.8353880692751763"/>
	<vType id="type110" maxSpeed="0.3038602194229988"/>
	<vType id="type111" maxSpeed="0.6351953690303908"/>
	<vType id="type112" maxSpeed="0.13612973760932945"/>
	<vType id="type113" maxSpeed="0.46377085650723027"/>
	<vType id="type114" maxSpeed="1.0"/>
	<vType id="type115" maxSpeed="0.5844049346879535"/>
	<vType id="type116" maxSpeed="0.292923186344239"/>
	<vType id="type117" maxSpeed="0.03770224337185588"/>
	<vType id="type118" maxSpeed="0.14238272524199552"/>
	<vType id="type119" maxSpeed="0.3600609756097561"/>
	<vType id="type120" maxSpeed="0.6955942947702061"/>
	<vType id="type121" maxSpeed="0.5600211267605634"/>
	<vType id="type122" maxSpeed="1.0"/>
	<vType id="type123" maxSpeed="0.1295003785011355"/>
	<vType id="type124" maxSpeed="0.8343177450352337"/>
	<vType id="type125" maxSpeed="0.4084864070536371"/>
	<vType id="type126" maxSpeed="0.312972972972973"/>
	<vType id="type127" maxSpeed="0.32029457364341085"/>
	<vType id="type128" maxSpeed="0.14388261851015802"/>
	<vType id="type129" maxSpeed="0.5138095238095238"/>
	<vType id="type130" maxSpeed="0.49683333333333335"/>
	<vType id="type131" maxSpeed="0.32818109610802226"/>
	<vType id="type132" maxSpeed="0.10221167883211679"/>
	<vType id="type133" maxSpeed="0.16471204188481675"/>
	<vType id="type134" maxSpeed="0.5113938527519657"/>
	<vType id="type135" maxSpeed="0.2529359062715369"/>
	<vType id="type136" maxSpeed="0.20578904333605888"/>
	<vType id="type137" maxSpeed="0.48451209992193595"/>
	<vType id="type138" maxSpeed="0.5939634630659253"/>
	<vType id="type139" maxSpeed="0.2176809015421115"/>
	<vType id="type140" maxSpeed="0.28952170713760117"/>
	<vType id="type141" maxSpeed="0.9821794871794871"/>
	<vType id="type142" maxSpeed="0.101472"/>
	<vType id="type143" maxSpeed="0.40699121522694"/>
	<vType id="type144" maxSpeed="0.49855949895615864"/>
	<vType id="type145" maxSpeed="1.0467402501839589"/>
	<vType id="type146" maxSpeed="3.33796887159533"/>
	<vType id="type147" maxSpeed="0.04105107327905255"/>
	<vType id="type148" maxSpeed="0.19639344262295083"/>
	<vType id="type149" maxSpeed="0.09124796084828711"/>
	<vType id="type150" maxSpeed="0.13234615384615386"/>
	<vType id="type151" maxSpeed="0.25187083888149137"/>
	<vType id="type152" maxSpeed="3.2307057602490916"/>
	<vType id="type153" maxSpeed="0.6966984126984127"/>
	<vType id="type154" maxSpeed="0.2012027972027972"/>
	<vType id="type155" maxSpeed="7.519956427015251"/>
	<vType id="type156" maxSpeed="0.9770662460567824"/>
	<vType id="type157" maxSpeed="1.0"/>
	<vType id="type158" maxSpeed="1.0"/>
	<vType id="type159" maxSpeed="1.0"/>
	<vType id="type160" maxSpeed="8.340050933786076"/>
	<vType id="type161" maxSpeed="1.0"/>
	<vType id="type162" maxSpeed="1.0"/>
	<vType id="type163" maxSpeed="1.0"/>
	<vType id="type164" maxSpeed="1.0"/>
	<vType id="type165" maxSpeed="8.0"/>
	<vType id="type166" maxSpeed="1.0"/>
	<vType id="type167" maxSpeed="8.0"/>
	<vType id="type168" maxSpeed="8.0"/>
	<vType id="type169" maxSpeed="1.0"/>
	<vType id="type170" maxSpeed="1.0"/>
	<vehicle id="244780651" type="type0" depart="0" departLane="free" departSpeed="max" departPos="last">
		<route id="244780651" edges="29472670 -29472670 29472670"/>
	</vehicle>
	<vehicle id="244780372" type="type1" depart="14" departLane="free" departSpeed="max" departPos="last">
		<route id="244780372" edges="gneE48"/>
	</vehicle>
	<vehicle id="244670099" type="type2" depart="17" departLane="free" departSpeed="max" departPos="last">
		<route id="244670099" edges="-29472599"/>
	</vehicle>
	<vehicle id="244710267" type="type3" depart="23" departLane="free" departSpeed="max" departPos="last">
		<route id="244710267" edges="58985549 -58985549"/>
	</vehicle>
	<vehicle id="244700226" type="type4" depart="35" departLane="free" departSpeed="max" departPos="last">
		<route id="244700226" edges="360632516"/>
	</vehicle>
	<vehicle id="244750688" type="type5" depart="40" departLane="free" departSpeed="max" departPos="last">
		<route id="244750688" edges="-360632524#4 360632524#4 -360632524#4 360632524#4 -360632524#4 360632524#4 -360632524#4 360632524#4 -360632524#4"/>
	</vehicle>
	<vehicle id="244780647" type="type6" depart="48" departLane="free" departSpeed="max" departPos="last">
		<route id="244780647" edges="-29472670 29472670"/>
	</vehicle>
	<vehicle id="244780646" type="type7" depart="48" departLane="free" departSpeed="max" departPos="last">
		<route id="244780646" edges="29472670"/>
	</vehicle>
	<vehicle id="244300678" type="type8" depart="58" departLane="free" departSpeed="max" departPos="last">
		<route id="244300678" edges="360632524#3 -360632516 360632516 -360632524#3 360632524#3 -360632516 360632516 -360632524#3 360632524#3 -360632516 360632516 -360632524#3 360632524#3 -360632516 360632516 -360632524#3 360632524#3 -360632516 360632516"/>
	</vehicle>
	<vehicle id="244750690" type="type9" depart="59" departLane="free" departSpeed="max" departPos="last">
		<route id="244750690" edges="-360632524#4 -360632524#3 360632524#3 -360632524#3 -360632524#2 -360632524#1 -360632524#0 360632524#0 360632524#1 -360632520 360632520 360632524#2 360632524#3"/>
	</vehicle>
	<vehicle id="244670766" type="type10" depart="66" departLane="free" departSpeed="max" departPos="last">
		<route id="244670766" edges="-360632524#3 360632524#3 -360632516 360632516 -360632524#3 360632524#3 -360632516 360632516 -360632524#3 360632524#3 -360632516 360632516 -360632524#3 360632524#3 -360632516 360632516 -360632524#3 360632524#3 -360632516 360632516"/>
	</vehicle>
	<vehicle id="244110703" type="type11" depart="78" departLane="free" departSpeed="max" departPos="last">
		<route id="244110703" edges="527004184#0"/>
	</vehicle>
	<vehicle id="244750263" type="type12" depart="90" departLane="free" departSpeed="max" departPos="last">
		<route id="244750263" edges="58985549"/>
	</vehicle>
	<vehicle id="244850737" type="type13" depart="97" departLane="free" departSpeed="max" departPos="last">
		<route id="244850737" edges="58985549 -58985549"/>
	</vehicle>
	<vehicle id="244730403" type="type14" depart="119" departLane="free" departSpeed="max" departPos="last">
		<route id="244730403" edges="29472010#0"/>
	</vehicle>
	<vehicle id="244820383" type="type15" depart="123" departLane="free" departSpeed="max" departPos="last">
		<route id="244820383" edges="gneE50"/>
	</vehicle>
	<vehicle id="244650029" type="type16" depart="142" departLane="free" departSpeed="max" departPos="last">
		<route id="244650029" edges="360632516"/>
	</vehicle>
	<vehicle id="244780811" type="type17" depart="150" departLane="free" departSpeed="max" departPos="last">
		<route id="244780811" edges="-27459189"/>
	</vehicle>
	<vehicle id="269057506" type="type18" depart="162" departLane="free" departSpeed="max" departPos="last">
		<route id="269057506" edges="-195582885#0"/>
	</vehicle>
	<vehicle id="244670683" type="type19" depart="163" departLane="free" departSpeed="max" departPos="last">
		<route id="244670683" edges="29474370#1"/>
	</vehicle>
	<vehicle id="244710543" type="type20" depart="174" departLane="free" departSpeed="max" departPos="last">
		<route id="244710543" edges="388339526"/>
	</vehicle>
	<vehicle id="244110926" type="type21" depart="174" departLane="free" departSpeed="max" departPos="last">
		<route id="244110926" edges="29472010#0"/>
	</vehicle>
	<vehicle id="244110860" type="type22" depart="182" departLane="free" departSpeed="max" departPos="last">
		<route id="244110860" edges="-29473090"/>
	</vehicle>
	<vehicle id="265676630" type="type23" depart="189" departLane="free" departSpeed="max" departPos="last">
		<route id="265676630" edges="-360632516"/>
	</vehicle>
	<vehicle id="247113300" type="type24" depart="196" departLane="free" departSpeed="max" departPos="last">
		<route id="247113300" edges="360632524#6 -360632524#6 195582885#0"/>
	</vehicle>
	<vehicle id="244260498" type="type25" depart="199" departLane="free" departSpeed="max" departPos="last">
		<route id="244260498" edges="-29472669"/>
	</vehicle>
	<vehicle id="244820044" type="type26" depart="226" departLane="free" departSpeed="max" departPos="last">
		<route id="244820044" edges="-30010643#0 30010643#0 -30010643#0"/>
	</vehicle>
	<vehicle id="244740540" type="type27" depart="229" departLane="free" departSpeed="max" departPos="last">
		<route id="244740540" edges="360632516"/>
	</vehicle>
	<vehicle id="244780327" type="type28" depart="232" departLane="free" departSpeed="max" departPos="last">
		<route id="244780327" edges="-15498366 -30010643#0 30010643#0 -30010643#0 -25429798 -29473424 29473424 -29473424 -22103866#1 22103866#1 -22103866#1 22103866#1 -22103866#1"/>
	</vehicle>
	<vehicle id="244670037" type="type29" depart="233" departLane="free" departSpeed="max" departPos="last">
		<route id="244670037" edges="23291087#2"/>
	</vehicle>
	<vehicle id="244110861" type="type30" depart="236" departLane="free" departSpeed="max" departPos="last">
		<route id="244110861" edges="-29473090"/>
	</vehicle>
	<vehicle id="244770759" type="type31" depart="244" departLane="free" departSpeed="max" departPos="last">
		<route id="244770759" edges="68237456 -29407365#2"/>
	</vehicle>
	<vehicle id="244270394" type="type32" depart="254" departLane="free" departSpeed="max" departPos="last">
		<route id="244270394" edges="68237456"/>
	</vehicle>
	<vehicle id="244820333" type="type33" depart="269" departLane="free" departSpeed="max" departPos="last">
		<route id="244820333" edges="-92323947#1 92323947#1"/>
	</vehicle>
	<vehicle id="244130609" type="type34" depart="273" departLane="free" departSpeed="max" departPos="last">
		<route id="244130609" edges="29474091"/>
	</vehicle>
	<vehicle id="244260499" type="type35" depart="303" departLane="free" departSpeed="max" departPos="last">
		<route id="244260499" edges="-29472669"/>
	</vehicle>
	<vehicle id="244710299" type="type36" depart="304" departLane="free" departSpeed="max" departPos="last">
		<route id="244710299" edges="29472010#1"/>
	</vehicle>
	<vehicle id="244770115" type="type37" depart="327" departLane="free" departSpeed="max" departPos="last">
		<route id="244770115" edges="-360632526"/>
	</vehicle>
	<vehicle id="244750243" type="type38" depart="328" departLane="free" departSpeed="max" departPos="last">
		<route id="244750243" edges="58985549"/>
	</vehicle>
	<vehicle id="244110350" type="type39" depart="336" departLane="free" departSpeed="max" departPos="last">
		<route id="244110350" edges="527004184#0"/>
	</vehicle>
	<vehicle id="244750266" type="type40" depart="341" departLane="free" departSpeed="max" departPos="last">
		<route id="244750266" edges="gneE50"/>
	</vehicle>
	<vehicle id="269057571" type="type41" depart="343" departLane="free" departSpeed="max" departPos="last">
		<route id="269057571" edges="360632524#4"/>
	</vehicle>
	<vehicle id="244050337" type="type42" depart="349" departLane="free" departSpeed="max" departPos="last">
		<route id="244050337" edges="-360632524#6 -360632524#5 -360632524#4 -360632524#3 360632524#3"/>
	</vehicle>
	<vehicle id="244820994" type="type43" depart="356" departLane="free" departSpeed="max" departPos="last">
		<route id="244820994" edges="388339526"/>
	</vehicle>
	<vehicle id="244250734" type="type44" depart="356" departLane="free" departSpeed="max" departPos="last">
		<route id="244250734" edges="22103866#1 -22103866#1"/>
	</vehicle>
	<vehicle id="244780634" type="type45" depart="371" departLane="free" departSpeed="max" departPos="last">
		<route id="244780634" edges="-29472670 29472670"/>
	</vehicle>
	<vehicle id="211183280" type="type46" depart="379" departLane="free" departSpeed="max" departPos="last">
		<route id="211183280" edges="-360632524#4 360632524#4 360632524#5 -360632524#5 360632524#5 360632524#6 -360632524#6"/>
	</vehicle>
	<vehicle id="244850516" type="type47" depart="379" departLane="free" departSpeed="max" departPos="last">
		<route id="244850516" edges="388339526"/>
	</vehicle>
	<vehicle id="244780649" type="type48" depart="380" departLane="free" departSpeed="max" departPos="last">
		<route id="244780649" edges="29472670"/>
	</vehicle>
	<vehicle id="244780322" type="type49" depart="381" departLane="free" departSpeed="max" departPos="last">
		<route id="244780322" edges="30010643#1"/>
	</vehicle>
	<vehicle id="244750240" type="type50" depart="406" departLane="free" departSpeed="max" departPos="last">
		<route id="244750240" edges="58985549"/>
	</vehicle>
	<vehicle id="244820278" type="type51" depart="414" departLane="free" departSpeed="max" departPos="last">
		<route id="244820278" edges="29473019#3"/>
	</vehicle>
	<vehicle id="244260497" type="type52" depart="431" departLane="free" departSpeed="max" departPos="last">
		<route id="244260497" edges="-29472669"/>
	</vehicle>
	<vehicle id="244740654" type="type53" depart="431" departLane="free" departSpeed="max" departPos="last">
		<route id="244740654" edges="-29474370#1"/>
	</vehicle>
	<vehicle id="244010005" type="type54" depart="431" departLane="free" departSpeed="max" departPos="last">
		<route id="244010005" edges="-360632516"/>
	</vehicle>
	<vehicle id="244615809" type="type55" depart="431" departLane="free" departSpeed="max" departPos="last">
		<route id="244615809" edges="360632524#0"/>
	</vehicle>
	<vehicle id="211479640" type="type56" depart="455" departLane="free" departSpeed="max" departPos="last">
		<route id="211479640" edges="-360632524#6 -360632524#5 -360632524#4 360632524#4"/>
	</vehicle>
	<vehicle id="244870759" type="type57" depart="471" departLane="free" departSpeed="max" departPos="last">
		<route id="244870759" edges="-29474370#1 29474370#1 33912317 33914156 -33914156 -33912317 -29474370#1"/>
	</vehicle>
	<vehicle id="244260494" type="type58" depart="474" departLane="free" departSpeed="max" departPos="last">
		<route id="244260494" edges="-29472669"/>
	</vehicle>
	<vehicle id="244780654" type="type59" depart="512" departLane="free" departSpeed="max" departPos="last">
		<route id="244780654" edges="-29472669"/>
	</vehicle>
	<vehicle id="244810800" type="type60" depart="536" departLane="free" departSpeed="max" departPos="last">
		<route id="244810800" edges="-22103866#1"/>
	</vehicle>
	<vehicle id="244710297" type="type61" depart="555" departLane="free" departSpeed="max" departPos="last">
		<route id="244710297" edges="29472010#1"/>
	</vehicle>
	<vehicle id="226012930" type="type62" depart="583" departLane="free" departSpeed="max" departPos="last">
		<route id="226012930" edges="-23294019#0"/>
	</vehicle>
	<vehicle id="244110863" type="type63" depart="584" departLane="free" departSpeed="max" departPos="last">
		<route id="244110863" edges="gneE48"/>
	</vehicle>
	<vehicle id="244690186" type="type64" depart="595" departLane="free" departSpeed="max" departPos="last">
		<route id="244690186" edges="360632524#5 360632524#6 -360632524#6 195582885#0 -284441178 -29396393 284441179 -284441179 29396393 284441178 -195582885#0 360632524#6 -360632524#6 -360632524#5 -360632524#4 -360632524#3 -360632524#2 -360632524#1"/>
	</vehicle>
	<vehicle id="244780642" type="type65" depart="598" departLane="free" departSpeed="max" departPos="last">
		<route id="244780642" edges="-195582877#2"/>
	</vehicle>
	<vehicle id="244700935" type="type66" depart="601" departLane="free" departSpeed="max" departPos="last">
		<route id="244700935" edges="-29980149"/>
	</vehicle>
	<vehicle id="244780650" type="type67" depart="604" departLane="free" departSpeed="max" departPos="last">
		<route id="244780650" edges="-195582877#2"/>
	</vehicle>
	<vehicle id="244780182" type="type68" depart="604" departLane="free" departSpeed="max" departPos="last">
		<route id="244780182" edges="22103866#1"/>
	</vehicle>
	<vehicle id="265574250" type="type69" depart="611" departLane="free" departSpeed="max" departPos="last">
		<route id="265574250" edges="-360632516"/>
	</vehicle>
	<vehicle id="244260496" type="type70" depart="621" departLane="free" departSpeed="max" departPos="last">
		<route id="244260496" edges="-29472669"/>
	</vehicle>
	<vehicle id="244780319" type="type71" depart="625" departLane="free" departSpeed="max" departPos="last">
		<route id="244780319" edges="-15498366"/>
	</vehicle>
	<vehicle id="244780686" type="type72" depart="634" departLane="free" departSpeed="max" departPos="last">
		<route id="244780686" edges="-29407365#2"/>
	</vehicle>
	<vehicle id="244810915" type="type73" depart="637" departLane="free" departSpeed="max" departPos="last">
		<route id="244810915" edges="-15498366"/>
	</vehicle>
	<vehicle id="244250733" type="type74" depart="652" departLane="free" departSpeed="max" departPos="last">
		<route id="244250733" edges="29473090"/>
	</vehicle>
	<vehicle id="244780640" type="type75" depart="661" departLane="free" departSpeed="max" departPos="last">
		<route id="244780640" edges="-195582877#2"/>
	</vehicle>
	<vehicle id="244780657" type="type76" depart="661" departLane="free" departSpeed="max" departPos="last">
		<route id="244780657" edges="-29472669"/>
	</vehicle>
	<vehicle id="244700702" type="type77" depart="667" departLane="free" departSpeed="max" departPos="last">
		<route id="244700702" edges="195582885#1"/>
	</vehicle>
	<vehicle id="244810804" type="type78" depart="679" departLane="free" departSpeed="max" departPos="last">
		<route id="244810804" edges="22103866#1 -22103866#1"/>
	</vehicle>
	<vehicle id="244700476" type="type79" depart="686" departLane="free" departSpeed="max" departPos="last">
		<route id="244700476" edges="29472010#1"/>
	</vehicle>
	<vehicle id="244780655" type="type80" depart="713" departLane="free" departSpeed="max" departPos="last">
		<route id="244780655" edges="-29472669"/>
	</vehicle>
	<vehicle id="244820613" type="type81" depart="735" departLane="free" departSpeed="max" departPos="last">
		<route id="244820613" edges="92323947#1"/>
	</vehicle>
	<vehicle id="269057389" type="type82" depart="737" departLane="free" departSpeed="max" departPos="last">
		<route id="269057389" edges="360632524#4"/>
	</vehicle>
	<vehicle id="244030306" type="type83" depart="752" departLane="free" departSpeed="max" departPos="last">
		<route id="244030306" edges="-360632524#6"/>
	</vehicle>
	<vehicle id="244650269" type="type84" depart="756" departLane="free" departSpeed="max" departPos="last">
		<route id="244650269" edges="27687813#0"/>
	</vehicle>
	<vehicle id="244740307" type="type85" depart="764" departLane="free" departSpeed="max" departPos="last">
		<route id="244740307" edges="360632524#0 360632524#1 -360632520 360632520 360632524#2 360632524#3 360632524#4 -360632524#4 360632524#4 360632524#5 195582885#0 -195582885#0 195582885#0"/>
	</vehicle>
	<vehicle id="244660939" type="type86" depart="770" departLane="free" departSpeed="max" departPos="last">
		<route id="244660939" edges="360632518#1"/>
	</vehicle>
	<vehicle id="244690887" type="type87" depart="776" departLane="free" departSpeed="max" departPos="last">
		<route id="244690887" edges="29472010#0"/>
	</vehicle>
	<vehicle id="244020069" type="type88" depart="784" departLane="free" departSpeed="max" departPos="last">
		<route id="244020069" edges="-360632524#6"/>
	</vehicle>
	<vehicle id="244780637" type="type89" depart="787" departLane="free" departSpeed="max" departPos="last">
		<route id="244780637" edges="-29472670 29472670 -29472670"/>
	</vehicle>
	<vehicle id="244750256" type="type90" depart="799" departLane="free" departSpeed="max" departPos="last">
		<route id="244750256" edges="58985549"/>
	</vehicle>
	<vehicle id="244710587" type="type91" depart="808" departLane="free" departSpeed="max" departPos="last">
		<route id="244710587" edges="29472010#0"/>
	</vehicle>
	<vehicle id="244780324" type="type92" depart="809" departLane="free" departSpeed="max" departPos="last">
		<route id="244780324" edges="30010643#1"/>
	</vehicle>
	<vehicle id="244750258" type="type93" depart="813" departLane="free" departSpeed="max" departPos="last">
		<route id="244750258" edges="58985549"/>
	</vehicle>
	<vehicle id="244660894" type="type94" depart="830" departLane="free" departSpeed="max" departPos="last">
		<route id="244660894" edges="29472010#0"/>
	</vehicle>
	<vehicle id="211488640" type="type95" depart="853" departLane="free" departSpeed="max" departPos="last">
		<route id="211488640" edges="360632524#4"/>
	</vehicle>
	<vehicle id="244780652" type="type96" depart="858" departLane="free" departSpeed="max" departPos="last">
		<route id="244780652" edges="-195582877#2"/>
	</vehicle>
	<vehicle id="244810801" type="type97" depart="859" departLane="free" departSpeed="max" departPos="last">
		<route id="244810801" edges="22103866#1 -22103866#1"/>
	</vehicle>
	<vehicle id="244750259" type="type98" depart="865" departLane="free" departSpeed="max" departPos="last">
		<route id="244750259" edges="-58985549 58985549"/>
	</vehicle>
	<vehicle id="244810803" type="type99" depart="865" departLane="free" departSpeed="max" departPos="last">
		<route id="244810803" edges="22103866#1 -22103866#1"/>
	</vehicle>
	<vehicle id="244050538" type="type100" depart="880" departLane="free" departSpeed="max" departPos="last">
		<route id="244050538" edges="-360632516"/>
	</vehicle>
	<vehicle id="244100114" type="type101" depart="889" departLane="free" departSpeed="max" departPos="last">
		<route id="244100114" edges="22103866#1 -22103866#1"/>
	</vehicle>
	<vehicle id="244710544" type="type102" depart="890" departLane="free" departSpeed="max" departPos="last">
		<route id="244710544" edges="388339526"/>
	</vehicle>
	<vehicle id="244780710" type="type103" depart="891" departLane="free" departSpeed="max" departPos="last">
		<route id="244780710" edges="-92323947#1 92323947#1"/>
	</vehicle>
	<vehicle id="244780636" type="type104" depart="892" departLane="free" departSpeed="max" departPos="last">
		<route id="244780636" edges="-29472670"/>
	</vehicle>
	<vehicle id="244250731" type="type105" depart="898" departLane="free" departSpeed="max" departPos="last">
		<route id="244250731" edges="22103866#1 -22103866#1"/>
	</vehicle>
	<vehicle id="244780367" type="type106" depart="909" departLane="free" departSpeed="max" departPos="last">
		<route id="244780367" edges="92323947#1"/>
	</vehicle>
	<vehicle id="244780648" type="type107" depart="917" departLane="free" departSpeed="max" departPos="last">
		<route id="244780648" edges="195582877#2 -195582877#2"/>
	</vehicle>
	<vehicle id="244810807" type="type108" depart="917" departLane="free" departSpeed="max" departPos="last">
		<route id="244810807" edges="-22103866#1"/>
	</vehicle>
	<vehicle id="244870589" type="type109" depart="933" departLane="free" departSpeed="max" departPos="last">
		<route id="244870589" edges="29997526"/>
	</vehicle>
	<vehicle id="244020560" type="type110" depart="933" departLane="free" departSpeed="max" departPos="last">
		<route id="244020560" edges="195582885#0"/>
	</vehicle>
	<vehicle id="244780368" type="type111" depart="938" departLane="free" departSpeed="max" departPos="last">
		<route id="244780368" edges="92323947#1"/>
	</vehicle>
	<vehicle id="244870618" type="type112" depart="939" departLane="free" departSpeed="max" departPos="last">
		<route id="244870618" edges="195582880#1"/>
	</vehicle>
	<vehicle id="244660734" type="type113" depart="939" departLane="free" departSpeed="max" departPos="last">
		<route id="244660734" edges="-544663980"/>
	</vehicle>
	<vehicle id="244810242" type="type114" depart="939" departLane="free" departSpeed="max" departPos="last">
		<route id="244810242" edges="-360632516"/>
	</vehicle>
	<vehicle id="244780711" type="type115" depart="991" departLane="free" departSpeed="max" departPos="last">
		<route id="244780711" edges="68237456 -68237456"/>
	</vehicle>
	<vehicle id="244690683" type="type116" depart="991" departLane="free" departSpeed="max" departPos="last">
		<route id="244690683" edges="68237456"/>
	</vehicle>
	<vehicle id="244830663" type="type117" depart="993" departLane="free" departSpeed="max" departPos="last">
		<route id="244830663" edges="-195582877#0"/>
	</vehicle>
	<vehicle id="244700944" type="type118" depart="1026" departLane="free" departSpeed="max" departPos="last">
		<route id="244700944" edges="29472010#1"/>
	</vehicle>