<?xml version="1.0" encoding="UTF-8"?>
<routes xmlns:xsi="http://www.w3.org/2001/XMLSchema-instance" xsi:noNamespaceSchemaLocation="http://sumo.sf.net/xsd/routes_file.xsd">
	<vType id="type0" maxSpeed="1.0"/>
	<vType id="type1" maxSpeed="0.6701734012090362"/>
	<vType id="type2" maxSpeed="0.5666182760582376"/>
	<vType id="type3" maxSpeed="1.0"/>
	<vType id="type4" maxSpeed="1.0"/>
	<vType id="type5" maxSpeed="1.0"/>
	<vType id="type6" maxSpeed="0.9859228961796211"/>
	<vType id="type7" maxSpeed="1.2348511097196158"/>
	<vType id="type8" maxSpeed="1.3020666457527317"/>
	<vType id="type9" maxSpeed="0.23144721709127658"/>
	<vType id="type10" maxSpeed="0.2237372458667747"/>
	<vType id="type11" maxSpeed="1.0"/>
	<vType id="type12" maxSpeed="0.7518888025158121"/>
	<vType id="type13" maxSpeed="0.2651487534967188"/>
	<vType id="type14" maxSpeed="0.014089081019789876"/>
	<vType id="type15" maxSpeed="0.24458060887295227"/>
	<vType id="type16" maxSpeed="0.16007581845498056"/>
	<vType id="type17" maxSpeed="1.0819217849870344"/>
	<vType id="type18" maxSpeed="0.7319066312250251"/>
	<vType id="type19" maxSpeed="0.12294804775734107"/>
	<vType id="type20" maxSpeed="0.28282943843739106"/>
	<vType id="type21" maxSpeed="0.32728705085524057"/>
	<vType id="type22" maxSpeed="1.069191966778336"/>
	<vType id="type23" maxSpeed="1.648955223880597"/>
	<vType id="type24" maxSpeed="1.1878370458232308"/>
	<vType id="type25" maxSpeed="1.0"/>
	<vType id="type26" maxSpeed="0.8499373534455595"/>
	<vType id="type27" maxSpeed="1.0"/>
	<vType id="type28" maxSpeed="0.07719802377751786"/>
	<vType id="type29" maxSpeed="0.024614323385082862"/>
	<vType id="type30" maxSpeed="1.0"/>
	<vType id="type31" maxSpeed="1.0"/>
	<vType id="type32" maxSpeed="9.477905511811024"/>
	<vType id="type33" maxSpeed="1.406119606676697"/>
	<vType id="type34" maxSpeed="0.6350035529027213"/>
	<vType id="type35" maxSpeed="1.0"/>
	<vType id="type36" maxSpeed="0.5460223080823096"/>
	<vType id="type37" maxSpeed="1.4970512014529187"/>
	<vType id="type38" maxSpeed="0.885994443764961"/>
	<vType id="type39" maxSpeed="1.0"/>
	<vType id="type40" maxSpeed="1.3114001198491303"/>
	<vType id="type41" maxSpeed="0.04362640444514557"/>
	<vType id="type42" maxSpeed="1.0"/>
	<vType id="type43" maxSpeed="1.2050401230790755"/>
	<vType id="type44" maxSpeed="1.0"/>
	<vType id="type45" maxSpeed="1.02041063773948"/>
	<vType id="type46" maxSpeed="0.20082813376332023"/>
	<vType id="type47" maxSpeed="0.8879837298810352"/>
	<vType id="type48" maxSpeed="1.1605106427781766"/>
	<vType id="type49" maxSpeed="1.0"/>
	<vType id="type50" maxSpeed="1.0"/>
	<vType id="type51" maxSpeed="0.634220108843045"/>
	<vType id="type52" maxSpeed="0.7017349825184035"/>
	<vType id="type53" maxSpeed="1.0728982866753096"/>
	<vType id="type54" maxSpeed="0.13991852561868245"/>
	<vType id="type55" maxSpeed="1.0"/>
	<vType id="type56" maxSpeed="0.1696767177459219"/>
	<vType id="type57" maxSpeed="0.14093396756301343"/>
	<vType id="type58" maxSpeed="0.13810757533089268"/>
	<vType id="type59" maxSpeed="0.6472713774597492"/>
	<vType id="type60" maxSpeed="1.0"/>
	<vType id="type61" maxSpeed="0.15779874213836476"/>
	<vType id="type62" maxSpeed="0.7892849120179707"/>
	<vType id="type63" maxSpeed="0.1405385438972163"/>
	<vType id="type64" maxSpeed="1.2131371156713762"/>
	<vType id="type65" maxSpeed="0.022435431799838583"/>
	<vType id="type66" maxSpeed="1.320696629213483"/>
	<vType id="type67" maxSpeed="0.6755782264896921"/>
	<vType id="type68" maxSpeed="1.2357550891033326"/>
	<vType id="type69" maxSpeed="0.6506763002709451"/>
	<vType id="type70" maxSpeed="0.1605644898149443"/>
	<vType id="type71" maxSpeed="0.08452375434530708"/>
	<vType id="type72" maxSpeed="0.8388431863021416"/>
	<vType id="type73" maxSpeed="0.9113745160154876"/>
	<vType id="type74" maxSpeed="0.46532889302848696"/>
	<vType id="type75" maxSpeed="0.21854281183932348"/>
	<vType id="type76" maxSpeed="0.04181739927768109"/>
	<vType id="type77" maxSpeed="0.22585632823120252"/>
	<vType id="type78" maxSpeed="0.31644981412639406"/>
	<vType id="type79" maxSpeed="1.0416932334001894"/>
	<vType id="type80" maxSpeed="1.1263109379956993"/>
	<vType id="type81" maxSpeed="0.07608402283760268"/>
	<vType id="type82" maxSpeed="0.4969327095571423"/>
	<vType id="type83" maxSpeed="1.0"/>
	<vType id="type84" maxSpeed="1.0"/>
	<vType id="type85" maxSpeed="0.014425206760158217"/>
	<vType id="type86" maxSpeed="1.1901571840495113"/>
	<vType id="type87" maxSpeed="0.013229778501167645"/>
	<vType id="type88" maxSpeed="1.0"/>
	<vType id="type89" maxSpeed="0.13478769642260113"/>
	<vType id="type90" maxSpeed="0.769458425182964"/>
	<vType id="type91" maxSpeed="1.0370175438596492"/>
	<vType id="type92" maxSpeed="0.22552692434753885"/>
	<vType id="type93" maxSpeed="0.5610805646958923"/>
	<vType id="type94" maxSpeed="0.743188566793624"/>
	<vType id="type95" maxSpeed="0.920635387842148"/>
	<vType id="type96" maxSpeed="0.03815405117270789"/>
	<vType id="type97" maxSpeed="0.39346512574553577"/>
	<vType id="type98" maxSpeed="0.6391571359751639"/>
	<vType id="type99" maxSpeed="0.23525482495710165"/>
	<vType id="type100" maxSpeed="1.0"/>
	<vType id="type101" maxSpeed="1.0992608618233617"/>
	<vType id="type102" maxSpeed="0.01459795742232451"/>
	<vType id="type103" maxSpeed="0.1994674132835589"/>
	<vType id="type104" maxSpeed="0.2051977644024076"/>
	<vType id="type105" maxSpeed="1.0"/>
	<vType id="type106" maxSpeed="0.3343198635057471"/>
	<vType id="type107" maxSpeed="0.01346999063333093"/>
	<vType id="type108" maxSpeed="0.01835969199141616"/>
	<vType id="type109" maxSpeed="1.0"/>
	<vType id="type110" maxSpeed="1.1056068660616807"/>
	<vType id="type111" maxSpeed="0.01652714852045873"/>
	<vType id="type112" maxSpeed="0.2398091081661255"/>
	<vType id="type113" maxSpeed="0.5304206361878405"/>
	<vType id="type114" maxSpeed="0.023698212667819785"/>
	<vType id="type115" maxSpeed="0.16360852786740052"/>
	<vType id="type116" maxSpeed="0.6386224342295461"/>
	<vType id="type117" maxSpeed="1.0"/>
	<vType id="type118" maxSpeed="0.5795754884547072"/>
	<vType id="type119" maxSpeed="0.6348618794357781"/>
	<vType id="type120" maxSpeed="0.08718327357921267"/>
	<vType id="type121" maxSpeed="0.020837043633125555"/>
	<vType id="type122" maxSpeed="0.6323720608575378"/>
	<vType id="type123" maxSpeed="0.6696792888888893"/>
	<vType id="type124" maxSpeed="1.2142845473594468"/>
	<vType id="type125" maxSpeed="0.013480627805545828"/>
	<vType id="type126" maxSpeed="0.15315380883066476"/>
	<vType id="type127" maxSpeed="0.8359173379910165"/>
	<vType id="type128" maxSpeed="0.5850106958600727"/>
	<vType id="type129" maxSpeed="0.12059631669331439"/>
	<vType id="type130" maxSpeed="0.5416667258522727"/>
	<vType id="type131" maxSpeed="0.9195445555139781"/>
	<vType id="type132" maxSpeed="1.3795193865428224"/>
	<vType id="type133" maxSpeed="1.0375214505423347"/>
	<vType id="type134" maxSpeed="0.9234422088203387"/>
	<vType id="type135" maxSpeed="0.4591851430400229"/>
	<vType id="type136" maxSpeed="0.05856230953711885"/>
	<vType id="type137" maxSpeed="0.010710729400049789"/>
	<vType id="type138" maxSpeed="1.234087472809614"/>
	<vType id="type139" maxSpeed="0.11411005773754368"/>
	<vType id="type140" maxSpeed="0.9753834366759314"/>
	<vType id="type141" maxSpeed="0.7188147583804962"/>
	<vType id="type142" maxSpeed="2.4712614980289094"/>
	<vType id="type143" maxSpeed="0.48858691188286785"/>
	<vType id="type144" maxSpeed="0.7791476087770268"/>
	<vType id="type145" maxSpeed="0.6379380748565705"/>
	<vType id="type146" maxSpeed="1.325366280107046"/>
	<vType id="type147" maxSpeed="0.9577497566427505"/>
	<vType id="type148" maxSpeed="0.015729346795336642"/>
	<vType id="type149" maxSpeed="0.12902245519586314"/>
	<vType id="type150" maxSpeed="0.5924894783112924"/>
	<vType id="type151" maxSpeed="1.4736478983419516"/>
	<vType id="type152" maxSpeed="1.0"/>
	<vType id="type153" maxSpeed="0.7169493576205559"/>
	<vType id="type154" maxSpeed="8.0"/>
	<vType id="type155" maxSpeed="8.0"/>
	<vType id="type156" maxSpeed="0.042870548825256975"/>
	<vType id="type157" maxSpeed="1.0"/>
	<vType id="type158" maxSpeed="2.2605458013126167"/>
	<vType id="type159" maxSpeed="9.418575899843505"/>
	<vType id="type160" maxSpeed="7.300493827160494"/>
	<vType id="type161" maxSpeed="7.160363901018923"/>
	<vType id="type162" maxSpeed="1.6344907329637717"/>
	<vType id="type163" maxSpeed="0.5072680083053827"/>
	<vType id="type164" maxSpeed="0.15820450807777886"/>
	<vType id="type165" maxSpeed="0.2760443741162211"/>
	<vType id="type166" maxSpeed="0.20444494462951288"/>
	<vType id="type167" maxSpeed="1.5032919781906044"/>
	<vType id="type168" maxSpeed="0.21288270377733604"/>
	<vType id="type169" maxSpeed="0.22333148837677366"/>
	<vType id="type170" maxSpeed="1.253020591165726"/>
	<vType id="type171" maxSpeed="0.9444940759907399"/>
	<vType id="type172" maxSpeed="0.8661409764125068"/>
	<vType id="type173" maxSpeed="1.0"/>
	<vType id="type174" maxSpeed="1.8084726775177449"/>
	<vType id="type175" maxSpeed="1.0"/>
	<vType id="type176" maxSpeed="9.262089947089946"/>
	<vType id="type177" maxSpeed="5.738656542056074"/>
	<vType id="type178" maxSpeed="8.0"/>
	<vType id="type179" maxSpeed="9.74709726443769"/>
	<vType id="type180" maxSpeed="0.028965291216680192"/>
	<vType id="type181" maxSpeed="8.0"/>
	<vType id="type182" maxSpeed="0.3421679427019017"/>
	<vType id="type183" maxSpeed="8.650277777777777"/>
	<vType id="type184" maxSpeed="1.8414308923521288"/>
	<vType id="type185" maxSpeed="5.254292635658915"/>
	<vType id="type186" maxSpeed="1.9438357023411357"/>
	<vType id="type187" maxSpeed="2.101518264840182"/>
	<vType id="type188" maxSpeed="8.0"/>
	<vType id="type189" maxSpeed="1.274873713751168"/>
	<vType id="type190" maxSpeed="6.947980225988701"/>
	<vType id="type191" maxSpeed="1.2903264023210832"/>
	<vType id="type192" maxSpeed="2.075155080213904"/>
	<vType id="type193" maxSpeed="2.3965951610417613"/>
	<vType id="type194" maxSpeed="7.699514106583071"/>
	<vType id="type195" maxSpeed="1.447914313773631"/>
	<vType id="type196" maxSpeed="0.9926394440686308"/>
	<vType id="type197" maxSpeed="8.0"/>
	<vType id="type198" maxSpeed="0.40236439588688955"/>
	<vType id="type199" maxSpeed="1.3249547482873485"/>
	<vType id="type200" maxSpeed="1.760339444995045"/>
	<vType id="type201" maxSpeed="5.0958817733990145"/>
	<vType id="type202" maxSpeed="8.0"/>
	<vType id="type203" maxSpeed="1.818762063227953"/>
	<vType id="type204" maxSpeed="0.33961288440703397"/>
	<vType id="type205" maxSpeed="8.485198329853862"/>
	<vType id="type206" maxSpeed="2.044587223903665"/>
	<vType id="type207" maxSpeed="7.206735112936346"/>
	<vType id="type208" maxSpeed="9.050660869565217"/>
	<vType id="type209" maxSpeed="9.74660714285714"/>
	<vType id="type210" maxSpeed="7.557369230769229"/>
	<vType id="type211" maxSpeed="1.3955467869222105"/>
	<vType id="type212" maxSpeed="1.3371925064119232"/>
	<vType id="type213" maxSpeed="7.199126794258373"/>
	<vType id="type214" maxSpeed="1.4814181623717375"/>
	<vType id="type215" maxSpeed="7.6515420560747645"/>
	<vType id="type216" maxSpeed="1.6500020484107736"/>
	<vType id="type217" maxSpeed="8.226036789297659"/>
	<vType id="type218" maxSpeed="1.0"/>
	<vType id="type219" maxSpeed="1.6285964853104848"/>
	<vType id="type220" maxSpeed="2.233719022872699"/>
	<vType id="type221" maxSpeed="1.9019233048631692"/>
	<vType id="type222" maxSpeed="7.615953488372091"/>
	<vType id="type223" maxSpeed="2.376906415172556"/>
	<vType id="type224" maxSpeed="5.887408585055645"/>
	<vType id="type225" maxSpeed="2.4849822051639925"/>
	<vType id="type226" maxSpeed="9.287916666666666"/>
	<vType id="type227" maxSpeed="0.16123014055729734"/>
	<vType id="type228" maxSpeed="1.571363426665246"/>
	<vType id="type229" maxSpeed="1.8773414516068947"/>
	<vType id="type230" maxSpeed="2.0490661774009866"/>
	<vType id="type231" maxSpeed="9.092735674676526"/>
	<vType id="type232" maxSpeed="1.3861211422717377"/>
	<vType id="type233" maxSpeed="8.6224"/>
	<vType id="type234" maxSpeed="0.5680580829650536"/>
	<vType id="type235" maxSpeed="1.052646226584047"/>
	<vType id="type236" maxSpeed="2.0783271322266743"/>
	<vType id="type237" maxSpeed="7.835958333333334"/>
	<vType id="type238" maxSpeed="2.355888669734822"/>
	<vType id="type239" maxSpeed="1.0070398235828255"/>
	<vType id="type240" maxSpeed="2.843050573888091"/>
	<vType id="type241" maxSpeed="8.85179948586118"/>
	<vType id="type242" maxSpeed="1.2209647268276402"/>
	<vType id="type243" maxSpeed="9.3423851590106"/>
	<vType id="type244" maxSpeed="0.5909691908204084"/>
	<vType id="type245" maxSpeed="1.4563419693027115"/>
	<vType id="type246" maxSpeed="6.149982394366196"/>
	<vType id="type247" maxSpeed="8.0"/>
	<vType id="type248" maxSpeed="1.9736894419363396"/>
	<vType id="type249" maxSpeed="9.55178640776699"/>
	<vType id="type250" maxSpeed="7.772610759493669"/>
	<vType id="type251" maxSpeed="8.0"/>
	<vType id="type252" maxSpeed="2.1835642002385636"/>
	<vType id="type253" maxSpeed="8.046955074875209"/>
	<vType id="type254" maxSpeed="1.5113876634935373"/>
	<vType id="type255" maxSpeed="1.534300913060739"/>
	<vType id="type256" maxSpeed="1.3095171026156949"/>
	<vType id="type257" maxSpeed="1.6151768146769474"/>
	<vType id="type258" maxSpeed="0.16051554207733132"/>
	<vType id="type259" maxSpeed="5.943007380073801"/>
	<vType id="type260" maxSpeed="1.869269015085697"/>
	<vType id="type261" maxSpeed="0.13185947046843177"/>
	<vType id="type262" maxSpeed="0.8403097313771352"/>
	<vType id="type263" maxSpeed="8.0"/>
	<vType id="type264" maxSpeed="7.825759398496241"/>
	<vType id="type265" maxSpeed="0.45368989386248276"/>
	<vType id="type266" maxSpeed="1.8512841319430344"/>
	<vType id="type267" maxSpeed="1.494422996573912"/>
	<vType id="type268" maxSpeed="1.7926128538638104"/>
	<vType id="type269" maxSpeed="3.853818181818182"/>
	<vType id="type270" maxSpeed="2.2223187510298246"/>
	<vType id="type271" maxSpeed="8.281430976430977"/>
	<vType id="type272" maxSpeed="1.7434621374752706"/>
	<vType id="type273" maxSpeed="1.5967557462718271"/>
	<vType id="type274" maxSpeed="8.539320987654321"/>
	<vType id="type275" maxSpeed="2.6760446153196162"/>
	<vType id="type276" maxSpeed="1.5138934845642167"/>
	<vType id="type277" maxSpeed="0.7350412639569266"/>
	<vType id="type278" maxSpeed="1.9875896149874615"/>
	<vType id="type279" maxSpeed="5.796226114649681"/>
	<vType id="type280" maxSpeed="1.0"/>
	<vType id="type281" maxSpeed="8.694318584070794"/>
	<vType id="type282" maxSpeed="1.3265918115238684"/>
	<vType id="type283" maxSpeed="0.5730238604194349"/>
	<vType id="type284" maxSpeed="1.702590374905045"/>
	<vType id="type285" maxSpeed="0.7451249635886978"/>
	<vType id="type286" maxSpeed="7.2037883008356545"/>
	<vType id="type287" maxSpeed="8.0"/>
	<vType id="type288" maxSpeed="0.18247972880113608"/>
	<vType id="type289" maxSpeed="8.0"/>
	<vType id="type290" maxSpeed="8.0"/>
	<vType id="type291" maxSpeed="8.0"/>
	<vType id="type292" maxSpeed="6.446574803149605"/>
	<vType id="type293" maxSpeed="2.210126498002663"/>
	<vType id="type294" maxSpeed="1.6203933066361547"/>
	<vType id="type295" maxSpeed="7.783496835443038"/>
	<vType id="type296" maxSpeed="7.272871148459382"/>
	<vType id="type297" maxSpeed="8.0"/>
	<vType id="type298" maxSpeed="1.6789488686976661"/>
	<vType id="type299" maxSpeed="1.6508645833333337"/>
	<vType id="type300" maxSpeed="8.584938917975567"/>
	<vType id="type301" maxSpeed="0.44252542845199955"/>
	<vType id="type302" maxSpeed="1.7334487499363513"/>
	<vType id="type303" maxSpeed="0.09092511848341232"/>
	<vType id="type304" maxSpeed="2.5747287899860916"/>
	<vType id="type305" maxSpeed="7.615953488372091"/>
	<vType id="type306" maxSpeed="7.324414225941421"/>
	<vType id="type307" maxSpeed="1.8677938133389935"/>
	<vType id="type308" maxSpeed="3.2499909255898363"/>
	<vType id="type309" maxSpeed="2.0093230029388187"/>
	<vType id="type310" maxSpeed="6.085570071258908"/>
	<vType id="type311" maxSpeed="5.540380517503805"/>
	<vType id="type312" maxSpeed="0.8406355213362913"/>
	<vType id="type313" maxSpeed="6.633615520282187"/>
	<vType id="type314" maxSpeed="7.627779503105589"/>
	<vType id="type315" maxSpeed="5.749145569620253"/>
	<vType id="type316" maxSpeed="1.2931105913798864"/>
	<vType id="type317" maxSpeed="1.7140345044993401"/>
	<vType id="type318" maxSpeed="8.0"/>
	<vType id="type319" maxSpeed="9.575614035087717"/>
	<vType id="type320" maxSpeed="7.591311728395062"/>
	<vType id="type321" maxSpeed="8.0"/>
	<vType id="type322" maxSpeed="3.1844527532290963"/>
	<vType id="type323" maxSpeed="1.7985617383996626"/>
	<vType id="type324" maxSpeed="1.5555623051714491"/>
	<vType id="type325" maxSpeed="7.027596566523604"/>
	<vType id="type326" maxSpeed="8.0"/>
	<vType id="type327" maxSpeed="6.306628205128205"/>
	<vType id="type328" maxSpeed="9.080018484288352"/>
	<vType id="type329" maxSpeed="1.0"/>
	<vType id="type330" maxSpeed="3.5594469479721433"/>
	<vType id="type331" maxSpeed="1.0839312891674127"/>
	<vType id="type332" maxSpeed="9.056776729559749"/>
	<vType id="type333" maxSpeed="2.283712267180475"/>
	<vType id="type334" maxSpeed="7.844716242661447"/>
	<vType id="type335" maxSpeed="6.5050093109869636"/>
	<vType id="type336" maxSpeed="8.0"/>
	<vType id="type337" maxSpeed="8.440360824742266"/>
	<vType id="type338" maxSpeed="6.699124513618676"/>
	<vType id="type339" maxSpeed="1.7968524112071662"/>
	<vType id="type340" maxSpeed="8.654716666666666"/>
	<vType id="type341" maxSpeed="8.0"/>
	<vType id="type342" maxSpeed="8.0"/>
	<vType id="type343" maxSpeed="9.446711538461537"/>
	<vType id="type344" maxSpeed="9.237529812606475"/>
	<vType id="type345" maxSpeed="1.133155465820594"/>
	<vType id="type346" maxSpeed="8.0"/>
	<vType id="type347" maxSpeed="1.5495439999999998"/>
	<vType id="type348" maxSpeed="8.0"/>
	<vType id="type349" maxSpeed="8.0"/>
	<vType id="type350" maxSpeed="0.5313071553228621"/>
	<vType id="type351" maxSpeed="2.7700193554630808"/>
	<vType id="type352" maxSpeed="0.9121342391940964"/>
	<vType id="type353" maxSpeed="4.616973886328723"/>
	<vType id="type354" maxSpeed="1.4043008560945778"/>
	<vType id="type355" maxSpeed="8.0"/>
	<vType id="type356" maxSpeed="1.395910506644518"/>
	<vType id="type357" maxSpeed="9.256067226890757"/>
	<vType id="type358" maxSpeed="8.190583596214509"/>
	<vType id="type359" maxSpeed="7.651888888888887"/>
	<vType id="type360" maxSpeed="1.0"/>
	<vType id="type361" maxSpeed="1.0"/>
	<vType id="type362" maxSpeed="8.219270588235293"/>
	<vType id="type363" maxSpeed="6.8783300589390945"/>
	<vType id="type364" maxSpeed="0.540708604483008"/>
	<vType id="type365" maxSpeed="8.0"/>
	<vType id="type366" maxSpeed="6.042644444444445"/>
	<vType id="type367" maxSpeed="5.789108138238572"/>
	<vType id="type368" maxSpeed="7.989056865464633"/>
	<vType id="type369" maxSpeed="5.813360946745561"/>
	<vType id="type370" maxSpeed="8.829102564102563"/>
	<vType id="type371" maxSpeed="7.604164086687305"/>
	<vType id="type372" maxSpeed="6.503219895287958"/>
	<vType id="type373" maxSpeed="1.0"/>
	<vType id="type374" maxSpeed="8.273114035087719"/>
	<vType id="type375" maxSpeed="1.703921568627451"/>
	<vType id="type376" maxSpeed="0.809284862932062"/>
	<vType id="type377" maxSpeed="6.841682892906815"/>
	<vType id="type378" maxSpeed="1.0"/>
	<vType id="type379" maxSpeed="7.0578879310344815"/>
	<vType id="type380" maxSpeed="6.9330173564752995"/>
	<vType id="type381" maxSpeed="8.0"/>
	<vType id="type382" maxSpeed="3.471851390618514"/>
	<vType id="type383" maxSpeed="2.964223814397817"/>
	<vType id="type384" maxSpeed="2.104501395584877"/>
	<vType id="type385" maxSpeed="8.740682852807284"/>
	<vType id="type386" maxSpeed="7.7237264150943385"/>
	<vType id="type387" maxSpeed="4.484421952316689"/>
	<vType id="type388" maxSpeed="1.3218899388549195"/>
	<vType id="type389" maxSpeed="8.011279554937413"/>
	<vType id="type390" maxSpeed="9.172149681528664"/>
	<vType id="type391" maxSpeed="3.931675338189385"/>
	<vType id="type392" maxSpeed="5.97183606557377"/>
	<vType id="type393" maxSpeed="9.97984251968504"/>
	<vehicle id="244130784" type="type0" depart="0" departLane="free" departSpeed="max" departPos="last">
		<route id="244130784" edges="195582880#1"/>
	</vehicle>
	<vehicle id="244830015" type="type1" depart="17" departLane="free" departSpeed="max" departPos="last">
		<route id="244830015" edges="29473472#0 -29473472#0 29473472#0 -29473472#0 29473472#0 29473472#1 -27784995 -27784906#0 15498529 29473019#1 15498784#0 15498784#1 -17162472#1 17162472#1 -17162472#1 26315489 -92323947#1 92323947#1 -92323947#1 92323947#1 -92323947#1 -92323947#0 -195582877#2 195582877#2 -195582877#2 -195582877#1 -195582877#0 -195582876 -17162472#5 17162472#5 -30123973#5 -30123973#4 -593311097#4 593311097#4 17166659#0 17166659#1 -17166659#1 17166659#1 -29406836#1 -29406836#0 29406836#0 -29406836#0 -17162470#1 -17162470#0 29404961 23294019#0 -23294019#0 23294019#0 23294019#1 23294019#2 -29472010#1 -29474883 -29474838#3 -29474838#2 gneE50 gneE49 gneE48 29408185#0 -29408185#0 29408185#0 28344864 29407577 29407365#1 29407365#2 29407365#3 29472010#0 29472010#1 -23294019#2 23294019#2 -23294019#2 -23294019#1 -23294019#0 -29404961 17162470#0 -17162470#0 17162470#0 17162470#1 -17162470#1 17162470#1 29406836#0 -29406836#0 29406836#0 29406836#1 29406836#2 23289293 17166660 -17162469#1 17162469#1 -17166660 -30123973#4 -593311097#4 593311097#4 30123973#4 30123973#5 195582876 17163948#0 -17163948#0 195582877#0 -23269771 23269771 195582877#1 195582877#2 29472670 29403640#0 29472669 -29472669 29472669 gneE49 gneE50 gneE49 29474838#2 29474838#3 29474883 29472010#1 29474860#0 29474860#1 -360632524#4 -360632524#3 -360632524#2 -360632520 -360632518#1 58985549 -58985549 360632518#1 360632520 -360632524#1 -360632526 -33914156 -33912317 -gneE27 29473019#0 29473019#1 29473019#2 -15498075 27784995 -29473472#1 -29473472#0 29473472#0"/>
	</vehicle>
	<vehicle id="244260494" type="type2" depart="20" departLane="free" departSpeed="max" departPos="last">
		<route id="244260494" edges="-29472669 29472669 gneE49 gneE50 gneE49 29474838#2 29472797 68237455 68237456 -29407365#2 -29407365#1 29407365#1 -29407365#1 gneE34 -17163948#0 17163948#0 -17163948#0 -195582876 195582876 -195582876 -17162472#5 17162472#5 -17162472#5 -17162472#4 17162472#4 -17162472#4 12869939#0 -12869939#0 12869939#0 479495084#2 -479495084#2 479495084#2 601083337 601083336#0 -601083336#0 601083336#0 601083336#1 -601083336#1 601083336#1 29473678#1 29473678#2 gneE43 360632518#1 360632520 360632524#2 360632524#3 360632524#4 -29474860#1 -29474860#0 29474860#0 -29474860#0 -29472010#1 -29474883 -29474838#3 -29474838#2 gneE50 -29472669 29472669 gneE49 gneE50 gneE49 29474838#2 29472797 68237455 68237456 -29407365#2 -29407365#1 gneE34 -17163948#0 17163948#0 -17163948#0 -195582876 195582876 -195582876 -17162472#5 -17162472#4 -17162472#2 -17162472#1 26315489 69007555#1 gneE43 360632518#1 360632520 360632524#2 360632524#3 360632524#4 -29474860#1 -29474860#0 29474860#0 -29474860#0 -29472010#1 -29474883 -29474838#3 -29474838#2 gneE50 -29472669"/>
	</vehicle>
	<vehicle id="244820383" type="type3" depart="21" departLane="free" departSpeed="max" departPos="last">
		<route id="244820383" edges="gneE50"/>
	</vehicle>
	<vehicle id="244710543" type="type4" depart="28" departLane="free" departSpeed="max" departPos="last">
		<route id="244710543" edges="388339526"/>
	</vehicle>
	<vehicle id="244780372" type="type5" depart="28" departLane="free" departSpeed="max" departPos="last">
		<route id="244780372" edges="gneE48"/>
	</vehicle>
	<vehicle id="244300678" type="type6" depart="31" departLane="free" departSpeed="max" departPos="last">
		<route id="244300678" edges="360632524#3 -360632516 360632516 -360632524#3 360632524#3 -360632516 360632516 -360632524#3 360632524#3 -360632516 360632516 -360632524#3 360632524#3 360632524#4 -360632524#4 360632524#4 360632524#5 360632524#6 -360632524#6 -360632524#5 -360632524#4 -360632516 360632516 -360632524#3 360632524#3 -360632516 360632516 -360632524#3 360632524#3 -360632516 360632516 -360632524#3 360632524#3 -360632516 360632516 -360632524#3 360632524#3 -360632516 360632516 -360632524#3 360632524#3 -360632524#3 360632524#3 -360632516 360632516 -360632524#3 360632524#3 -360632516 360632516 -360632524#3 360632524#3 -360632524#3 360632524#3 -360632516 360632516 -360632524#3 360632524#3 -360632516 360632516 -360632524#3 360632524#3 -360632516 360632516 -360632524#3 360632524#3 -360632516 360632516 -360632524#3 360632524#3 -360632524#3 360632524#3 -360632516 360632516 -360632524#3 360632524#3 -360632524#3 360632524#3 -360632516 360632516 -360632524#3 360632524#3 -360632524#3 360632524#3 -360632516 360632516 -360632524#3 360632524#3 -360632516 360632516 -360632524#3 360632524#3 -360632516 360632516 -360632524#3 360632524#3 -360632516 360632516 -360632524#3 360632524#3 -360632516 360632516 -360632524#3 360632524#3 -360632516 360632516 -360632524#3 360632524#3 -360632516 360632516 -360632524#3 360632524#3 -360632516 360632516 -360632524#3 360632524#3 -360632524#3 360632524#3 -360632516 360632516 -360632524#3 360632524#3 -360632516 360632516 -360632524#3 360632524#3 -360632516 360632516 -360632524#3 360632524#3 -360632516 360632516 -360632524#3 360632524#3 -360632524#3 360632524#3 -360632516 360632516 -360632524#3 360632524#3 -360632516 360632516 -360632524#3 360632524#3 -360632516 360632516 -360632524#3 360632524#3 -360632516 360632516 -360632524#3 360632524#3 -360632516 360632516 -360632524#3 360632524#3 -360632516 360632516 -360632524#3 360632524#3 -360632516 360632516 -360632524#3 360632524#3 -360632516 360632516 -360632524#3 360632524#3 -360632516 360632516 -360632524#3 360632524#3 -360632516 360632516 -360632524#3 360632524#3 -360632516 360632516 -360632524#3 360632524#3 -360632516 360632516 -360632524#3 360632524#3 -360632516 360632516 -360632524#3 360632524#3 -360632516 360632516 -360632524#3 360632524#3"/>
	</vehicle>
	<vehicle id="244750690" type="type7" depart="44" departLane="free" departSpeed="max" departPos="last">
		<route id="244750690" edges="360632524#3 -360632524#3 -360632524#2 -360632524#1 -360632524#0 360632524#0 360632524#1 360632524#2 360632524#3 -360632524#3 -360632524#2 -360632524#1 -360632524#0 360632524#0 360632524#1 -360632520 360632520 360632524#2 360632524#3 360632524#4 360632524#5 360632524#6 -360632524#6 -360632524#5 -360632524#4 -360632524#3 360632524#3 -360632524#3 -360632524#2 -360632524#1 -360632524#0 360632524#0 360632524#1 360632524#2 360632524#3 -360632524#3 -360632524#2 -360632524#1 -360632524#0 360632524#0 -360632526 360632526 360632524#1 360632524#2 360632524#3 -360632524#3 -360632524#2 -360632524#1 -360632524#0 360632524#0 360632524#1 360632524#2 360632524#3 -360632524#3 -360632524#2 -360632524#1 -360632526 360632526 360632524#1 360632524#2 360632524#3 -360632524#3 -360632524#2 -360632524#1 -360632526 360632526 360632524#1 360632524#2 360632524#3 -360632524#3 -360632524#2 -360632520 360632520 360632524#2 360632524#3 -360632524#3 -360632524#2 -360632524#1 -360632526 360632526 360632524#1 360632524#2 360632524#3 -360632524#3 -360632524#2 -360632524#1 -360632524#0 360632524#0 -360632526 360632526 360632524#1 360632524#2 360632524#3 -360632524#3 -360632524#2 -360632520 360632520 360632524#2 360632524#3 -360632524#3 -360632524#2 -360632524#1 -360632524#0 360632524#0 -360632526 360632526 360632524#1 360632524#2 360632524#3 -360632524#3 -360632524#2 -360632524#1 -360632524#0 360632524#0 360632524#1 -360632520 360632520 360632524#2 360632524#3 -360632524#3 -360632524#2 -360632524#1 -360632524#0 360632524#0 360632524#1 -360632520 360632520 360632524#2 360632524#3 -360632524#3 -360632524#2 360632524#2 -360632524#2 -360632524#1 -360632526 360632526 360632524#1 360632524#2 360632524#3 -360632524#3 -360632524#2 360632524#2 -360632524#2 -360632524#1 -360632524#0 360632524#0 360632524#1 -360632520 360632520 360632524#2 360632524#3 -360632524#3 -360632524#2 -360632524#1 -360632524#0 360632524#0 360632524#1 360632524#2 360632524#3 -360632524#3 -360632524#2 -360632524#1 -360632524#0 360632524#0 360632524#1 360632524#2 360632524#3 -360632524#3 -360632524#2 -360632524#1 -360632524#0 360632524#0 -360632526 360632526 360632524#1 360632524#2 360632524#3 -360632524#3 -360632524#2 -360632524#1 -360632524#0 360632524#0 360632524#1 -360632520 360632520 360632524#2 360632524#3 -360632524#3 -360632524#2 -360632524#1 -360632524#0 360632524#0 360632524#1 -360632520 360632520 360632524#2 360632524#3 -360632524#3 -360632524#2 -360632524#1 -360632524#0 360632524#0 360632524#1 -360632520 360632520"/>
	</vehicle>
	<vehicle id="244670766" type="type8" depart="49" departLane="free" departSpeed="max" departPos="last">