<?xml version="1.0" encoding="UTF-8"?>
<routes xmlns:xsi="http://www.w3.org/2001/XMLSchema-instance" xsi:noNamespaceSchemaLocation="http://sumo.sf.net/xsd/routes_file.xsd">
	<vType id="type0" maxSpeed="0.14858761329305134"/>
	<vType id="type1" maxSpeed="0.6279482636428065"/>
	<vType id="type2" maxSpeed="1.2827304550758463"/>
	<vType id="type3" maxSpeed="1.2686670513560303"/>
	<vType id="type4" maxSpeed="0.3091874027993779"/>
	<vType id="type5" maxSpeed="0.3183466773418735"/>
	<vType id="type6" maxSpeed="1.6600318194966732"/>
	<vType id="type7" maxSpeed="0.1360736434108527"/>
	<vType id="type8" maxSpeed="0.5507192307692307"/>
	<vType id="type9" maxSpeed="0.12801770592763664"/>
	<vType id="type10" maxSpeed="0.30225389585708856"/>
	<vType id="type11" maxSpeed="1.6763614602034709"/>
	<vType id="type12" maxSpeed="0.9639541651509641"/>
	<vType id="type13" maxSpeed="1.039615137908916"/>
	<vType id="type14" maxSpeed="0.07575581395348836"/>
	<vType id="type15" maxSpeed="9.146886395511922"/>
	<vType id="type16" maxSpeed="0.09490003772161448"/>
	<vType id="type17" maxSpeed="0.9608085569253083"/>
	<vType id="type18" maxSpeed="0.1367011952191235"/>
	<vType id="type19" maxSpeed="2.5947668845315905"/>
	<vType id="type20" maxSpeed="1.0"/>
	<vType id="type21" maxSpeed="0.036449799196787154"/>
	<vType id="type22" maxSpeed="0.13187549563838222"/>
	<vType id="type23" maxSpeed="0.1353954248366013"/>
	<vType id="type24" maxSpeed="0.12318148148148148"/>
	<vType id="type25" maxSpeed="0.03924904214559387"/>
	<vType id="type26" maxSpeed="0.1807152259763054"/>
	<vType id="type27" maxSpeed="0.06297584187408492"/>
	<vType id="type28" maxSpeed="0.063893429225237"/>
	<vType id="type29" maxSpeed="1.6576434676434675"/>
	<vType id="type30" maxSpeed="0.19357950530035334"/>
	<vType id="type31" maxSpeed="0.4618333333333333"/>
	<vType id="type32" maxSpeed="0.16266929133858268"/>
	<vType id="type33" maxSpeed="0.8171548117154811"/>
	<vType id="type34" maxSpeed="0.1421683577602405"/>
	<vType id="type35" maxSpeed="0.8528384279475981"/>
	<vType id="type36" maxSpeed="0.9880627233028979"/>
	<vType id="type37" maxSpeed="0.06441407712467241"/>
	<vType id="type38" maxSpeed="0.1984826847554445"/>
	<vType id="type39" maxSpeed="0.06372222222222222"/>
	<vType id="type40" maxSpeed="0.28281060606060604"/>
	<vType id="type41" maxSpeed="0.12417483339866718"/>
	<vType id="type42" maxSpeed="0.04188318981654811"/>
	<vType id="type43" maxSpeed="0.22273854447439353"/>
	<vType id="type44" maxSpeed="0.13543872371283538"/>
	<vType id="type45" maxSpeed="0.146"/>
	<vType id="type46" maxSpeed="0.22824933687002652"/>
	<vType id="type47" maxSpeed="0.3440669488264717"/>
	<vType id="type48" maxSpeed="2.8624906600249065"/>
	<vType id="type49" maxSpeed="0.5902964690206529"/>
	<vType id="type50" maxSpeed="0.2681247759053424"/>
	<vType id="type51" maxSpeed="0.06372222222222222"/>
	<vType id="type52" maxSpeed="0.09598779557589626"/>
	<vType id="type53" maxSpeed="0.022553883692557952"/>
	<vType id="type54" maxSpeed="0.15298780487804878"/>
	<vType id="type55" maxSpeed="0.14270463975858166"/>
	<vType id="type56" maxSpeed="0.19576514100785947"/>
	<vType id="type57" maxSpeed="1.0034081632653062"/>
	<vType id="type58" maxSpeed="0.04200901239203905"/>
	<vType id="type59" maxSpeed="0.320528012898025"/>
	<vType id="type60" maxSpeed="0.12414706980216497"/>
	<vType id="type61" maxSpeed="0.02133076923076923"/>
	<vType id="type62" maxSpeed="0.2656291390728477"/>
	<vType id="type63" maxSpeed="0.15628442097321765"/>
	<vType id="type64" maxSpeed="0.6563222222222223"/>
	<vType id="type65" maxSpeed="0.21200851393188852"/>
	<vType id="type66" maxSpeed="0.5322936802973978"/>
	<vType id="type67" maxSpeed="0.13576169532187127"/>
	<vType id="type68" maxSpeed="0.3736374549819928"/>
	<vType id="type69" maxSpeed="0.4675012594458438"/>
	<vType id="type70" maxSpeed="0.22061507936507938"/>
	<vType id="type71" maxSpeed="0.5223896388179496"/>
	<vType id="type72" maxSpeed="0.4708223938223938"/>
	<vType id="type73" maxSpeed="0.058852691218130304"/>
	<vType id="type74" maxSpeed="0.292579102281089"/>
	<vType id="type75" maxSpeed="0.1633677112257041"/>
	<vType id="type76" maxSpeed="0.5576647966339411"/>
	<vType id="type77" maxSpeed="0.042960829493087556"/>
	<vType id="type78" maxSpeed="0.1679650932169774"/>
	<vType id="type79" maxSpeed="0.19913849509269355"/>
	<vType id="type80" maxSpeed="0.10324664770418529"/>
	<vType id="type81" maxSpeed="0.09533333333333334"/>
	<vType id="type82" maxSpeed="0.29592317224287484"/>
	<vType id="type83" maxSpeed="1.2841086956521741"/>
	<vType id="type84" maxSpeed="0.9881411229135052"/>
	<vType id="type85" maxSpeed="0.1345733926405176"/>
	<vType id="type86" maxSpeed="0.24277658815132047"/>
	<vType id="type87" maxSpeed="0.2267747972551466"/>
	<vType id="type88" maxSpeed="0.2910076923076923"/>
	<vType id="type89" maxSpeed="0.3450474898236092"/>
	<vType id="type90" maxSpeed="0.2635330261136713"/>
	<vType id="type91" maxSpeed="1.0"/>
	<vType id="type92" maxSpeed="0.5503384615384616"/>
	<vType id="type93" maxSpeed="0.25113905325443786"/>
	<vType id="type94" maxSpeed="0.30822868217054267"/>
	<vType id="type95" maxSpeed="0.13791851851851852"/>
	<vType id="type96" maxSpeed="1.0621627731725698"/>
	<vType id="type97" maxSpeed="0.07370560378847672"/>
	<vType id="type98" maxSpeed="1.515628853267571"/>
	<vType id="type99" maxSpeed="1.0"/>
	<vType id="type100" maxSpeed="0.3075217391304348"/>
	<vType id="type101" maxSpeed="0.08808333333333333"/>
	<vType id="type102" maxSpeed="0.08678820791311094"/>
	<vType id="type103" maxSpeed="0.093225"/>
	<vType id="type104" maxSpeed="0.593898431665422"/>
	<vType id="type105" maxSpeed="0.518059377262853"/>
	<vType id="type106" maxSpeed="0.1502305918524212"/>
	<vType id="type107" maxSpeed="1.0088794326241135"/>
	<vType id="type108" maxSpeed="0.6367698412698413"/>
	<vType id="type109" maxSpeed="0.13394074074074075"/>
	<vType id="type110" maxSpeed="0.9506350364963503"/>
	<vType id="type111" maxSpeed="0.13224066390041495"/>
	<vType id="type112" maxSpeed="0.5465546218487395"/>
	<vType id="type113" maxSpeed="0.07985010706638115"/>
	<vType id="type114" maxSpeed="8.0"/>
	<vType id="type115" maxSpeed="0.29788188976377955"/>
	<vType id="type116" maxSpeed="0.2933733013589129"/>
	<vType id="type117" maxSpeed="0.12989942528735632"/>
	<vType id="type118" maxSpeed="0.13543872371283538"/>
	<vType id="type119" maxSpeed="0.13856521739130434"/>
	<vType id="type120" maxSpeed="0.9010327272727273"/>
	<vType id="type121" maxSpeed="0.12219285714285714"/>
	<vType id="type122" maxSpeed="0.06225868725868726"/>
	<vType id="type123" maxSpeed="0.20491129032258065"/>
	<vType id="type124" maxSpeed="0.4279830638953041"/>
	<vType id="type125" maxSpeed="8.60295971978984"/>
	<vType id="type126" maxSpeed="8.440360824742266"/>
	<vType id="type127" maxSpeed="0.17369220151828849"/>
	<vType id="type128" maxSpeed="7.6600699300699295"/>
	<vType id="type129" maxSpeed="8.0"/>
	<vType id="type130" maxSpeed="1.0"/>
	<vType id="type131" maxSpeed="1.0"/>
	<vType id="type132" maxSpeed="1.0"/>
	<vType id="type133" maxSpeed="8.913684210526316"/>
	<vType id="type134" maxSpeed="8.85179948586118"/>
	<vType id="type135" maxSpeed="2.0103950834064968"/>
	<vType id="type136" maxSpeed="1.0"/>
	<vType id="type137" maxSpeed="1.0"/>
	<vType id="type138" maxSpeed="8.0"/>
	<vType id="type139" maxSpeed="1.0"/>
	<vType id="type140" maxSpeed="8.0"/>
	<vType id="type141" maxSpeed="8.0"/>
	<vType id="type142" maxSpeed="7.499644970414201"/>
	<vType id="type143" maxSpeed="3.178007117437722"/>
	<vType id="type144" maxSpeed="6.13244094488189"/>
	<vType id="type145" maxSpeed="1.0"/>
	<vType id="type146" maxSpeed="1.0"/>
	<vType id="type147" maxSpeed="1.0"/>
	<vehicle id="244780123" type="type0" depart="0" departLane="free" departSpeed="max" departPos="last">
		<route id="244780123" edges="-68237456"/>
	</vehicle>
	<vehicle id="244820613" type="type1" depart="4" departLane="free" departSpeed="max" departPos="last">
		<route id="244820613" edges="-92323947#1 92323947#1"/>
	</vehicle>
	<vehicle id="244750690" type="type2" depart="10" departLane="free" departSpeed="max" departPos="last">
		<route id="244750690" edges="-360632524#4 360632524#4 -360632524#4 360632524#4 -360632524#4 360632524#4 -360632524#4 360632524#4"/>
	</vehicle>
	<vehicle id="244750685" type="type3" depart="12" departLane="free" departSpeed="max" departPos="last">
		<route id="244750685" edges="360632524#4 -360632524#4 360632524#4 -360632524#4 360632524#4 -360632524#4 360632524#4 -360632524#4"/>
	</vehicle>
	<vehicle id="244260496" type="type4" depart="15" departLane="free" departSpeed="max" departPos="last">
		<route id="244260496" edges="-29472669"/>
	</vehicle>
	<vehicle id="244780656" type="type5" depart="47" departLane="free" departSpeed="max" departPos="last">
		<route id="244780656" edges="-29472669"/>
	</vehicle>
	<vehicle id="244300678" type="type6" depart="50" departLane="free" departSpeed="max" departPos="last">
		<route id="244300678" edges="360632524#3 -360632516 360632516 -360632524#3 360632524#3 -360632516 360632516 -360632524#3 360632524#3 -360632516 360632516 -360632524#3 360632524#3 -360632516 360632516 -360632524#3 360632524#3 -360632516 360632516 -360632524#3 360632524#3"/>
	</vehicle>
	<vehicle id="244780811" type="type7" depart="55" departLane="free" departSpeed="max" departPos="last">
		<route id="244780811" edges="27459189 -27459189 27459189"/>
	</vehicle>
	<vehicle id="244810803" type="type8" depart="65" departLane="free" departSpeed="max" departPos="last">
		<route id="244810803" edges="-22103866#1 22103866#1"/>
	</vehicle>
	<vehicle id="244710542" type="type9" depart="73" departLane="free" departSpeed="max" departPos="last">
		<route id="244710542" edges="388339526"/>
	</vehicle>
	<vehicle id="244260494" type="type10" depart="74" departLane="free" departSpeed="max" departPos="last">
		<route id="244260494" edges="-29472669"/>
	</vehicle>
	<vehicle id="244670766" type="type11" depart="74" departLane="free" departSpeed="max" departPos="last">
		<route id="244670766" edges="-360632524#3 360632524#3 -360632516 360632516 -360632524#3 360632524#3 -360632516 360632516 -360632524#3 360632524#3 -360632516 360632516 -360632524#3 360632524#3 -360632516 360632516 -360632524#3 360632524#3 -360632516 360632516"/>
	</vehicle>
	<vehicle id="244780710" type="type12" depart="77" departLane="free" departSpeed="max" departPos="last">
		<route id="244780710" edges="92323947#1 -92323947#1 92323947#1"/>
	</vehicle>
	<vehicle id="244750689" type="type13" depart="110" departLane="free" departSpeed="max" departPos="last">
		<route id="244750689" edges="360632524#3 -360632524#3 -360632524#2 -360632524#1 -360632524#0 360632524#0"/>
	</vehicle>
	<vehicle id="244820383" type="type14" depart="117" departLane="free" departSpeed="max" departPos="last">
		<route id="244820383" edges="gneE50"/>
	</vehicle>
	<vehicle id="244630153" type="type15" depart="118" departLane="free" departSpeed="max" departPos="last">
		<route id="244630153" edges="360632524#0 -360632526 360632526 360632524#1 360632524#2 360632524#3 360632524#4 -360632524#4 360632524#4 360632524#5 360632524#6"/>
	</vehicle>
	<vehicle id="244070301" type="type16" depart="135" departLane="free" departSpeed="max" departPos="last">
		<route id="244070301" edges="360632526"/>
	</vehicle>
	<vehicle id="244070982" type="type17" depart="139" departLane="free" departSpeed="max" departPos="last">
		<route id="244070982" edges="92323947#1 -92323947#1 92323947#1"/>
	</vehicle>
	<vehicle id="244770080" type="type18" depart="140" departLane="free" departSpeed="max" departPos="last">
		<route id="244770080" edges="-58985549 58985549"/>
	</vehicle>
	<vehicle id="244700740" type="type19" depart="150" departLane="free" departSpeed="max" departPos="last">
		<route id="244700740" edges="27687813#0 -27687813#0 27687813#0 -27687813#0 23294019#2 29474860#0 29474860#1 -360632524#4 -360632524#3 -360632524#2 -360632524#1 -360632524#0"/>
	</vehicle>
	<vehicle id="244620113" type="type20" depart="171" departLane="free" departSpeed="max" departPos="last">
		<route id="244620113" edges="-360632524#0"/>
	</vehicle>
	<vehicle id="244810915" type="type21" depart="172" departLane="free" departSpeed="max" departPos="last">
		<route id="244810915" edges="-15498366"/>
	</vehicle>
	<vehicle id="244820994" type="type22" depart="177" departLane="free" departSpeed="max" departPos="last">
		<route id="244820994" edges="388339526"/>
	</vehicle>
	<vehicle id="244670683" type="type23" depart="192" departLane="free" departSpeed="max" departPos="last">
		<route id="244670683" edges="29474370#1"/>
	</vehicle>
	<vehicle id="244710544" type="type24" depart="210" departLane="free" departSpeed="max" departPos="last">
		<route id="244710544" edges="388339526"/>
	</vehicle>
	<vehicle id="256444000" type="type25" depart="212" departLane="free" departSpeed="max" departPos="last">
		<route id="256444000" edges="-29474860#1"/>
	</vehicle>
	<vehicle id="244780687" type="type26" depart="228" departLane="free" departSpeed="max" departPos="last">
		<route id="244780687" edges="68237456"/>
	</vehicle>
	<vehicle id="244750240" type="type27" depart="254" departLane="free" departSpeed="max" departPos="last">
		<route id="244750240" edges="58985549"/>
	</vehicle>
	<vehicle id="244750265" type="type28" depart="263" departLane="free" departSpeed="max" departPos="last">
		<route id="244750265" edges="gneE50"/>
	</vehicle>
	<vehicle id="244750286" type="type29" depart="267" departLane="free" departSpeed="max" departPos="last">
		<route id="244750286" edges="360632516 -360632524#3 360632524#3 -360632516 360632516 -360632524#3 360632524#3 360632524#4 -360632524#4 -360632524#3 360632524#3 -360632516 360632516 -360632524#3 360632524#3 -360632516 360632516 -360632524#3 360632524#3"/>
	</vehicle>
	<vehicle id="244780647" type="type30" depart="279" departLane="free" departSpeed="max" departPos="last">
		<route id="244780647" edges="29472670 -29472670 29472670"/>
	</vehicle>
	<vehicle id="244870589" type="type31" depart="281" departLane="free" departSpeed="max" departPos="last">
		<route id="244870589" edges="29997526"/>
	</vehicle>
	<vehicle id="244740654" type="type32" depart="305" departLane="free" departSpeed="max" departPos="last">
		<route id="244740654" edges="-29474370#1"/>
	</vehicle>
	<vehicle id="244810804" type="type33" depart="316" departLane="free" departSpeed="max" departPos="last">
		<route id="244810804" edges="-22103866#1 22103866#1 -22103866#1"/>
	</vehicle>
	<vehicle id="244780322" type="type34" depart="321" departLane="free" departSpeed="max" departPos="last">
		<route id="244780322" edges="30010643#1"/>
	</vehicle>
	<vehicle id="244250734" type="type35" depart="328" departLane="free" departSpeed="max" departPos="last">
		<route id="244250734" edges="-22103866#1 22103866#1 -22103866#1"/>
	</vehicle>
	<vehicle id="244210246" type="type36" depart="334" departLane="free" departSpeed="max" departPos="last">
		<route id="244210246" edges="-360632524#6"/>
	</vehicle>
	<vehicle id="244750263" type="type37" depart="358" departLane="free" departSpeed="max" departPos="last">
		<route id="244750263" edges="58985549"/>
	</vehicle>
	<vehicle id="269057498" type="type38" depart="378" departLane="free" departSpeed="max" departPos="last">
		<route id="269057498" edges="360632524#4"/>
	</vehicle>
	<vehicle id="244750256" type="type39" depart="383" departLane="free" departSpeed="max" departPos="last">
		<route id="244750256" edges="58985549"/>
	</vehicle>
	<vehicle id="227654770" type="type40" depart="399" departLane="free" departSpeed="max" departPos="last">
		<route id="227654770" edges="-195582885#0"/>
	</vehicle>
	<vehicle id="244130609" type="type41" depart="405" departLane="free" departSpeed="max" departPos="last">
		<route id="244130609" edges="29474091"/>
	</vehicle>
	<vehicle id="244780652" type="type42" depart="413" departLane="free" departSpeed="max" departPos="last">
		<route id="244780652" edges="-195582877#2"/>
	</vehicle>
	<vehicle id="244870757" type="type43" depart="414" departLane="free" departSpeed="max" departPos="last">
		<route id="244870757" edges="-29474370#1"/>
	</vehicle>
	<vehicle id="244870618" type="type44" depart="420" departLane="free" departSpeed="max" departPos="last">
		<route id="244870618" edges="195582880#1"/>
	</vehicle>
	<vehicle id="269057088" type="type45" depart="433" departLane="free" departSpeed="max" departPos="last">
		<route id="269057088" edges="-29474370#1"/>
	</vehicle>
	<vehicle id="244615560" type="type46" depart="451" departLane="free" departSpeed="max" departPos="last">
		<route id="244615560" edges="-29404218"/>
	</vehicle>
	<vehicle id="244820333" type="type47" depart="457" departLane="free" departSpeed="max" departPos="last">
		<route id="244820333" edges="-92323947#1"/>
	</vehicle>
	<vehicle id="244750692" type="type48" depart="458" departLane="free" departSpeed="max" departPos="last">
		<route id="244750692" edges="360632524#0 360632524#1 -360632520 360632520 360632524#2 360632524#3 -360632524#3 -360632524#2 -360632524#1 -360632524#0 360632524#0 360632524#1 -360632520 360632520 -360632524#1 -360632524#0"/>
	</vehicle>
	<vehicle id="244830009" type="type49" depart="483" departLane="free" departSpeed="max" departPos="last">
		<route id="244830009" edges="-92323947#1 92323947#1"/>
	</vehicle>
	<vehicle id="244020560" type="type50" depart="506" departLane="free" departSpeed="max" departPos="last">
		<route id="244020560" edges="195582885#0"/>
	</vehicle>
	<vehicle id="244750262" type="type51" depart="521" departLane="free" departSpeed="max" departPos="last">
		<route id="244750262" edges="58985549"/>
	</vehicle>
	<vehicle id="244770115" type="type52" depart="535" departLane="free" departSpeed="max" departPos="last">
		<route id="244770115" edges="-360632526"/>
	</vehicle>
	<vehicle id="244830882" type="type53" depart="559" departLane="free" departSpeed="max" departPos="last">
		<route id="244830882" edges="-195582877#0"/>
	</vehicle>
	<vehicle id="244660507" type="type54" depart="560" departLane="free" departSpeed="max" departPos="last">
		<route id="244660507" edges="-15498075"/>
	</vehicle>
	<vehicle id="244780327" type="type55" depart="585" departLane="free" departSpeed="max" departPos="last">
		<route id="244780327" edges="30010643#1"/>
	</vehicle>
	<vehicle id="244740479" type="type56" depart="587" departLane="free" departSpeed="max" departPos="last">
		<route id="244740479" edges="-360632516"/>
	</vehicle>
	<vehicle id="244110860" type="type57" depart="592" departLane="free" departSpeed="max" departPos="last">
		<route id="244110860" edges="-29473090 29473090"/>
	</vehicle>
	<vehicle id="244780646" type="type58" depart="599" departLane="free" departSpeed="max" departPos="last">
		<route id="244780646" edges="-195582877#2"/>
	</vehicle>
	<vehicle id="244260499" type="type59" depart="600" departLane="free" departSpeed="max" departPos="last">
		<route id="244260499" edges="-29472669"/>
	</vehicle>
	<vehicle id="244850516" type="type60" depart="615" departLane="free" departSpeed="max" departPos="last">
		<route id="244850516" edges="388339526"/>
	</vehicle>
	<vehicle id="244830663" type="type61" depart="629" departLane="free" departSpeed="max" departPos="last">
		<route id="244830663" edges="-195582877#0"/>
	</vehicle>
	<vehicle id="244820044" type="type62" depart="646" departLane="free" departSpeed="max" departPos="last">
		<route id="244820044" edges="-30010643#0 30010643#0"/>
	</vehicle>
	<vehicle id="244730907" type="type63" depart="662" departLane="free" departSpeed="max" departPos="last">
		<route id="244730907" edges="29474370#1"/>
	</vehicle>
	<vehicle id="244780368" type="type64" depart="671" departLane="free" departSpeed="max" departPos="last">
		<route id="244780368" edges="-92323947#1 92323947#1"/>
	</vehicle>
	<vehicle id="244780635" type="type65" depart="686" departLane="free" departSpeed="max" departPos="last">
		<route id="244780635" edges="29472670 -29472670 29472670"/>
	</vehicle>
	<vehicle id="244250731" type="type66" depart="702" departLane="free" departSpeed="max" departPos="last">
		<route id="244250731" edges="22103866#1 -22103866#1"/>
	</vehicle>
	<vehicle id="244110863" type="type67" depart="709" departLane="free" departSpeed="max" departPos="last">
		<route id="244110863" edges="gneE48"/>
	</vehicle>
	<vehicle id="244820409" type="type68" depart="712" departLane="free" departSpeed="max" departPos="last">
		<route id="244820409" edges="29473628#1"/>
	</vehicle>
	<vehicle id="244060167" type="type69" depart="724" departLane="free" departSpeed="max" departPos="last">
		<route id="244060167" edges="-29473628#1"/>
	</vehicle>
	<vehicle id="269057324" type="type70" depart="732" departLane="free" departSpeed="max" departPos="last">
		<route id="269057324" edges="360632524#4"/>
	</vehicle>
	<vehicle id="244780182" type="type71" depart="736" departLane="free" departSpeed="max" departPos="last">
		<route id="244780182" edges="22103866#1 -22103866#1"/>
	</vehicle>
	<vehicle id="244250733" type="type72" depart="737" departLane="free" departSpeed="max" departPos="last">
		<route id="244250733" edges="29473090"/>
	</vehicle>
	<vehicle id="244700935" type="type73" depart="751" departLane="free" departSpeed="max" departPos="last">
		<route id="244700935" edges="-29980149"/>
	</vehicle>
	<vehicle id="244780657" type="type74" depart="762" departLane="free" departSpeed="max" departPos="last">
		<route id="244780657" edges="-29472669"/>
	</vehicle>
	<vehicle id="244270394" type="type75" depart="766" departLane="free" departSpeed="max" departPos="last">
		<route id="244270394" edges="68237456"/>
	</vehicle>
	<vehicle id="244780654" type="type76" depart="781" departLane="free" departSpeed="max" departPos="last">
		<route id="244780654" edges="-29472669"/>
	</vehicle>
	<vehicle id="244780650" type="type77" depart="789" departLane="free" departSpeed="max" departPos="last">
		<route id="244780650" edges="-195582877#2"/>
	</vehicle>
	<vehicle id="211312540" type="type78" depart="799" departLane="free" departSpeed="max" departPos="last">
		<route id="211312540" edges="-360632516"/>
	</vehicle>
	<vehicle id="244780649" type="type79" depart="821" departLane="free" departSpeed="max" departPos="last">
		<route id="244780649" edges="29472670 -29472670 29472670"/>
	</vehicle>
	<vehicle id="244110703" type="type80" depart="829" departLane="free" departSpeed="max" departPos="last">
		<route id="244110703" edges="527004184#0"/>
	</vehicle>
	<vehicle id="244690688" type="type81" depart="838" departLane="free" departSpeed="max" departPos="last">
		<route id="244690688" edges="-360632526"/>
	</vehicle>
	<vehicle id="244810807" type="type82" depart="839" departLane="free" departSpeed="max" departPos="last">
		<route id="244810807" edges="-22103866#1"/>
	</vehicle>
	<vehicle id="244830406" type="type83" depart="845" departLane="free" departSpeed="max" departPos="last">
		<route id="244830406" edges="92323947#1 -92323947#1"/>
	</vehicle>
	<vehicle id="244860579" type="type84" depart="848" departLane="free" departSpeed="max" departPos="last">
		<route id="244860579" edges="29997526"/>
	</vehicle>
	<vehicle id="244820278" type="type85" depart="864" departLane="free" departSpeed="max" departPos="last">
		<route id="244820278" edges="29473019#3"/>
	</vehicle>
	<vehicle id="244850891" type="type86" depart="867" departLane="free" departSpeed="max" departPos="last">
		<route id="244850891" edges="29474883"/>
	</vehicle>
	<vehicle id="244830015" type="type87" depart="916" departLane="free" departSpeed="max" departPos="last">
		<route id="244830015" edges="-29473472#0"/>
	</vehicle>
	<vehicle id="244780323" type="type88" depart="916" departLane="free" departSpeed="max" departPos="last">
		<route id="244780323" edges="30010643#1"/>
	</vehicle>
	<vehicle id="244770759" type="type89" depart="918" departLane="free" departSpeed="max" departPos="last">
		<route id="244770759" edges="68237456 -29407365#2"/>
	</vehicle>
	<vehicle id="244690712" type="type90" depart="922" departLane="free" departSpeed="max" departPos="last">
		<route id="244690712" edges="-58985549 58985549"/>
	</vehicle>
	<vehicle id="244100114" type="type91" depart="937" departLane="free" departSpeed="max" departPos="last">
		<route id="244100114" edges="-22103866#1"/>
	</vehicle>
	<vehicle id="244780184" type="type92" depart="948" departLane="free" departSpeed="max" departPos="last">
		<route id="244780184" edges="22103866#1"/>
	</vehicle>
	<vehicle id="244780372" type="type93" depart="981" departLane="free" departSpeed="max" departPos="last">
		<route id="244780372" edges="gneE48"/>
	</vehicle>
	<vehicle id="244780655" type="type94" depart="988" departLane="free" departSpeed="max" departPos="last">
		<route id="244780655" edges="-29472669"/>
	</vehicle>
	<vehicle id="244780637" type="type95" depart="988" departLane="free" departSpeed="max" departPos="last">
		<route id="244780637" edges="-29472670"/>
	</vehicle>
	<vehicle id="244615809" type="type96" depart="992" departLane="free" departSpeed="max" departPos="last">
		<route id="244615809" edges="360632524#0"/>
	</vehicle>
	<vehicle id="244850037" type="type97" depart="992" departLane="free" departSpeed="max" departPos="last">
		<route id="244850037" edges="195582880#1"/>
	</vehicle>
	<vehicle id="244110861" type="type98" depart="999" departLane="free" departSpeed="max" departPos="last">
		<route id="244110861" edges="-29473090 29473090"/>
	</vehicle>
	<vehicle id="244870759" type="type99" depart="1011" departLane="free" departSpeed="max" departPos="last">
		<route id="244870759" edges="-33914156"/>
	</vehicle>
	<vehicle id="244740540" type="type100" depart="1018" departLane="free" departSpeed="max" departPos="last">
		<route id="244740540" edges="360632516"/>
	</vehicle>
	<vehicle id="244690887" type="type101" depart="1019" departLane="free" departSpeed="max" departPos="last">
		<route id="244690887" edges="29472010#0"/>
	</vehicle>
	<vehicle id="244780634" type="type102" depart="1024" departLane="free" departSpeed="max" departPos="last">
		<route id="244780634" edges="-195582877#2"/>
	</vehicle>
	<vehicle id="244780643" type="type103" depart="1031" departLane="free" departSpeed="max" departPos="last">
		<route id="244780643" edges="-195582877#2"/>
	</vehicle>
	<vehicle id="244260497" type="type104" depart="1045" departLane="free" departSpeed="max" departPos="last">
		<route id="244260497" edges="-29472669"/>
	</vehicle>
	<vehicle id="244810916" type="type105" depart="1045" departLane="free" departSpeed="max" departPos="last">
		<route id="244810916" edges="22103866#1"/>
	</vehicle>
	<vehicle id="244750266" type="type106" depart="1045" departLane="free" departSpeed="max" departPos="last">
		<route id="244750266" edges="gneE50"/>
	</vehicle>
	<vehicle id="244710831" type="type107" depart="1064" departLane="free" departSpeed="max" departPos="last">
		<route id="244710831" edges="-17162472#2 17162472#2"/>
	</vehicle>
	<vehicle id="244650269" type="type108" depart="1065" departLane="free" departSpeed="max" departPos="last">
		<route id="244650269" edges="27687813#0"/>
	</vehicle>
	<vehicle id="244780642" type="type109" depart="1071" departLane="free" departSpeed="max" departPos="last">
		<route id="244780642" edges="29472670"/>
	</vehicle>
	<vehicle id="244870645" type="type110" depart="1087" departLane="free" departSpeed="max" departPos="last">
		<route id="244870645" edges="29997526"/>
	</vehicle>
	<vehicle id="244700944" type="type111" depart="1107" departLane="free" departSpeed="max" departPos="last">
		<route id="244700944" edges="29472010#1"/>
	</vehicle>
	<vehicle id="244810801" type="type112" depart="1111" departLane="free" departSpeed="max" departPos="last">
		<route id="244810801" edges="22103866#1"/>
	</vehicle>
	<vehicle id="244780636" type="type113" depart="1113" departLane="free" departSpeed="max" departPos="last">
		<route id="244780636" edges="-195582877#2"/>
	</vehicle>
	<vehicle id="244690435" type="type114" depart="1148" departLane="free" departSpeed="max" departPos="last">
		<route id="244690435" edges="360632524#0 360632524#1 360632524#2 360632524#3 360632524#4 360632524#5 -360632524#5 360632524#5 360632524#6 -360632524#6"/>
	</vehicle>
	<vehicle id="244780324" type="type115" depart="1174" departLane="free" departSpeed="max" departPos="last">
		<route id="244780324" edges="30010643#1"/>
	</vehicle>
	<vehicle id="244780640" type="type116" depart="1183" departLane="free" departSpeed="max" departPos="last">
		<route id="244780640" edges="29472670 -29472670"/>
	</vehicle>
	<vehicle id="244780651" type="type117" depart="1190" departLane="free" departSpeed="max" departPos="last">
		<route id="244780651" edges="29472670"/>
	</vehicle>
	<vehicle id="244130784" type="type118" depart="1201" departLane="free" departSpeed="max" departPos="last">
		<route id="244130784" edges="195582880#1"/>
	</vehicle>
	<vehicle id="244700476" type="type119" depart="1293" departLane="free" departSpeed="max" departPos="last">
		<route id="244700476" edges="29472010#1"/>
	</vehicle>
	<vehicle id="244110865" type="type120" depart="1296" departLane="free" departSpeed="max" departPos="last">
		<route id="244110865" edges="-29473090"/>
	</vehicle>
	<vehicle id="244710267" type="type121" depart="1323" departLane="free" departSpeed="max" departPos="last">
		<route id="244710267" edges="-58985549"/>
	</vehicle>
	<vehicle id="244780686" type="type122" depart="1323" departLane="free" departSpeed="max" departPos="last">
		<route id="244780686" edges="-29407365#2"/>
	</vehicle>
	<vehicle id="244110350" type="type123" depart="1360" departLane="free" departSpeed="max" departPos="last">
		<route id="244110350" edges="527004184#0"/>
	</vehicle>
	<vehicle id="211716770" type="type124" depart="1374" departLane="free" departSpeed="max" departPos="last">
		<route id="211716770" edges="360632524#4"/>
	</vehicle>
	<vehicle id="244780024" type="type125" depart="1444" departLane="free" departSpeed="max" departPos="last">