<?xml version="1.0" encoding="UTF-8"?>
<routes xmlns:xsi="http://www.w3.org/2001/XMLSchema-instance" xsi:noNamespaceSchemaLocation="http://sumo.sf.net/xsd/routes_file.xsd">
	<vType id="type0" maxSpeed="0.5895375300135717"/>
	<vType id="type1" maxSpeed="1.0"/>
	<vType id="type2" maxSpeed="2.566984126984127"/>
	<vType id="type3" maxSpeed="0.6624870666222399"/>
	<vType id="type4" maxSpeed="2.7959716312056737"/>
	<vType id="type5" maxSpeed="0.03169775125226473"/>
	<vType id="type6" maxSpeed="0.8316120327977294"/>
	<vType id="type7" maxSpeed="0.8224148730708337"/>
	<vType id="type8" maxSpeed="1.0"/>
	<vType id="type9" maxSpeed="0.5601311852704259"/>
	<vType id="type10" maxSpeed="1.0670778543101656"/>
	<vType id="type11" maxSpeed="1.0"/>
	<vType id="type12" maxSpeed="1.9198574483250177"/>
	<vType id="type13" maxSpeed="0.02469799716133102"/>
	<vType id="type14" maxSpeed="0.013108489491121355"/>
	<vType id="type15" maxSpeed="8.0"/>
	<vType id="type16" maxSpeed="0.016563289685274523"/>
	<vType id="type17" maxSpeed="0.11139441012782092"/>
	<vType id="type18" maxSpeed="0.33619894921190907"/>
	<vType id="type19" maxSpeed="1.1657392140453335"/>
	<vType id="type20" maxSpeed="0.2453326825526871"/>
	<vType id="type21" maxSpeed="0.015929501970111108"/>
	<vType id="type22" maxSpeed="1.1003370766770342"/>
	<vType id="type23" maxSpeed="0.2644647808233601"/>
	<vType id="type24" maxSpeed="0.23239759541451138"/>
	<vType id="type25" maxSpeed="1.6491264167393174"/>
	<vType id="type26" maxSpeed="1.4662206236686859"/>
	<vType id="type27" maxSpeed="0.8809255664572604"/>
	<vType id="type28" maxSpeed="0.8360041084345812"/>
	<vType id="type29" maxSpeed="0.9860690691740356"/>
	<vType id="type30" maxSpeed="0.07084495430546053"/>
	<vType id="type31" maxSpeed="0.5032373540856032"/>
	<vType id="type32" maxSpeed="1.0"/>
	<vType id="type33" maxSpeed="1.0"/>
	<vType id="type34" maxSpeed="1.0"/>
	<vType id="type35" maxSpeed="1.0"/>
	<vType id="type36" maxSpeed="0.5621324494043975"/>
	<vType id="type37" maxSpeed="1.0589546021007654"/>
	<vType id="type38" maxSpeed="0.07475754244534016"/>
	<vType id="type39" maxSpeed="1.0"/>
	<vType id="type40" maxSpeed="0.743008822796969"/>
	<vType id="type41" maxSpeed="0.01841381805028034"/>
	<vType id="type42" maxSpeed="0.8853130523271383"/>
	<vType id="type43" maxSpeed="0.5714664723543976"/>
	<vType id="type44" maxSpeed="0.458978318978319"/>
	<vType id="type45" maxSpeed="0.050342348691745226"/>
	<vType id="type46" maxSpeed="1.0"/>
	<vType id="type47" maxSpeed="4.781934945788157"/>
	<vType id="type48" maxSpeed="0.01870294080930216"/>
	<vType id="type49" maxSpeed="1.1360298742138366"/>
	<vType id="type50" maxSpeed="0.7669397020157754"/>
	<vType id="type51" maxSpeed="0.14295795377699988"/>
	<vType id="type52" maxSpeed="1.0"/>
	<vType id="type53" maxSpeed="1.0"/>
	<vType id="type54" maxSpeed="0.7472409726813057"/>
	<vType id="type55" maxSpeed="0.9582836735408422"/>
	<vType id="type56" maxSpeed="0.7932749343010885"/>
	<vType id="type57" maxSpeed="0.7847617962160931"/>
	<vType id="type58" maxSpeed="0.7528948290972828"/>
	<vType id="type59" maxSpeed="0.010084047224821828"/>
	<vType id="type60" maxSpeed="0.30157641395908547"/>
	<vType id="type61" maxSpeed="0.8186386471379037"/>
	<vType id="type62" maxSpeed="0.03839899143434488"/>
	<vType id="type63" maxSpeed="1.0"/>
	<vType id="type64" maxSpeed="0.2711587621635838"/>
	<vType id="type65" maxSpeed="0.10573703231292517"/>
	<vType id="type66" maxSpeed="1.0"/>
	<vType id="type67" maxSpeed="1.2290654550567714"/>
	<vType id="type68" maxSpeed="8.660510563380281"/>
	<vType id="type69" maxSpeed="1.0"/>
	<vType id="type70" maxSpeed="0.25208041325305175"/>
	<vType id="type71" maxSpeed="0.3348832090876818"/>
	<vType id="type72" maxSpeed="0.8216608335416589"/>
	<vType id="type73" maxSpeed="1.0"/>
	<vType id="type74" maxSpeed="0.06146509798312116"/>
	<vType id="type75" maxSpeed="0.7153435303698199"/>
	<vType id="type76" maxSpeed="0.10333441869373682"/>
	<vType id="type77" maxSpeed="0.06341158248832311"/>
	<vType id="type78" maxSpeed="1.0"/>
	<vType id="type79" maxSpeed="0.014149692256141651"/>
	<vType id="type80" maxSpeed="0.01668811093836559"/>
	<vType id="type81" maxSpeed="0.6739302403498564"/>
	<vType id="type82" maxSpeed="0.12814936266991062"/>
	<vType id="type83" maxSpeed="0.9409714315926762"/>
	<vType id="type84" maxSpeed="0.7138875600237394"/>
	<vType id="type85" maxSpeed="0.540106010209708"/>
	<vType id="type86" maxSpeed="1.2699179474510776"/>
	<vType id="type87" maxSpeed="1.2317594957052789"/>
	<vType id="type88" maxSpeed="1.0845097484165458"/>
	<vType id="type89" maxSpeed="0.3743799925609735"/>
	<vType id="type90" maxSpeed="0.11445056213700869"/>
	<vType id="type91" maxSpeed="0.3097641748422459"/>
	<vType id="type92" maxSpeed="0.16449574078355356"/>
	<vType id="type93" maxSpeed="0.14020077834777997"/>
	<vType id="type94" maxSpeed="1.0"/>
	<vType id="type95" maxSpeed="0.07574020710554201"/>
	<vType id="type96" maxSpeed="0.9050977791923043"/>
	<vType id="type97" maxSpeed="0.05042261904761905"/>
	<vType id="type98" maxSpeed="1.0"/>
	<vType id="type99" maxSpeed="0.013365914786967418"/>
	<vType id="type100" maxSpeed="0.014291388110128676"/>
	<vType id="type101" maxSpeed="1.0"/>
	<vType id="type102" maxSpeed="0.7552908067542219"/>
	<vType id="type103" maxSpeed="1.061206765117804"/>
	<vType id="type104" maxSpeed="1.0"/>
	<vType id="type105" maxSpeed="1.0253426598193736"/>
	<vType id="type106" maxSpeed="1.0"/>
	<vType id="type107" maxSpeed="0.16345297387036237"/>
	<vType id="type108" maxSpeed="0.2731551664763562"/>
	<vType id="type109" maxSpeed="0.7284941601531056"/>
	<vType id="type110" maxSpeed="1.0"/>
	<vType id="type111" maxSpeed="1.2391015401146128"/>
	<vType id="type112" maxSpeed="1.3756432852228793"/>
	<vType id="type113" maxSpeed="0.016884825327510917"/>
	<vType id="type114" maxSpeed="1.0"/>
	<vType id="type115" maxSpeed="1.1988736651583716"/>
	<vType id="type116" maxSpeed="0.9645603271983637"/>
	<vType id="type117" maxSpeed="1.3637562556768597"/>
	<vType id="type118" maxSpeed="1.0972383576253113"/>
	<vType id="type119" maxSpeed="1.1667679631908412"/>
	<vType id="type120" maxSpeed="1.0"/>
	<vType id="type121" maxSpeed="0.8690102019053039"/>
	<vType id="type122" maxSpeed="1.3259554790265027"/>
	<vType id="type123" maxSpeed="1.0600458593291722"/>
	<vType id="type124" maxSpeed="1.0"/>
	<vType id="type125" maxSpeed="0.10509867707655605"/>
	<vType id="type126" maxSpeed="1.0"/>
	<vType id="type127" maxSpeed="0.22446284132240377"/>
	<vType id="type128" maxSpeed="1.0615415857633996"/>
	<vType id="type129" maxSpeed="1.0"/>
	<vType id="type130" maxSpeed="0.60895032668039"/>
	<vType id="type131" maxSpeed="1.0044077785387306"/>
	<vType id="type132" maxSpeed="0.3397567518578939"/>
	<vType id="type133" maxSpeed="1.0"/>
	<vType id="type134" maxSpeed="0.8604535278534381"/>
	<vType id="type135" maxSpeed="1.0544727094042925"/>
	<vType id="type136" maxSpeed="0.297342799188641"/>
	<vType id="type137" maxSpeed="1.0837816646562115"/>
	<vType id="type138" maxSpeed="8.0"/>
	<vType id="type139" maxSpeed="8.0"/>
	<vType id="type140" maxSpeed="0.6835545321331379"/>
	<vType id="type141" maxSpeed="8.0"/>
	<vType id="type142" maxSpeed="1.1585630479766185"/>
	<vType id="type143" maxSpeed="8.362045088566827"/>
	<vType id="type144" maxSpeed="7.711601255886968"/>
	<vType id="type145" maxSpeed="8.0"/>
	<vType id="type146" maxSpeed="8.0"/>
	<vType id="type147" maxSpeed="1.27067321407693"/>
	<vType id="type148" maxSpeed="0.09991700043430005"/>
	<vType id="type149" maxSpeed="8.0"/>
	<vType id="type150" maxSpeed="3.0428363475959426"/>
	<vType id="type151" maxSpeed="8.425883361921096"/>
	<vType id="type152" maxSpeed="0.9596229994072311"/>
	<vType id="type153" maxSpeed="0.4630976000950457"/>
	<vType id="type154" maxSpeed="1.5922245737235794"/>
	<vType id="type155" maxSpeed="0.23642730564758463"/>
	<vType id="type156" maxSpeed="2.0458171431385592"/>
	<vType id="type157" maxSpeed="8.0"/>
	<vType id="type158" maxSpeed="0.015002179543065205"/>
	<vType id="type159" maxSpeed="1.0091082395715631"/>
	<vType id="type160" maxSpeed="1.0"/>
	<vType id="type161" maxSpeed="1.1152519579944105"/>
	<vType id="type162" maxSpeed="9.146886395511922"/>
	<vType id="type163" maxSpeed="0.43989527761312"/>
	<vType id="type164" maxSpeed="1.0"/>
	<vType id="type165" maxSpeed="8.0"/>
	<vType id="type166" maxSpeed="0.8669717813051145"/>
	<vType id="type167" maxSpeed="0.5054338190407942"/>
	<vType id="type168" maxSpeed="7.6600699300699295"/>
	<vType id="type169" maxSpeed="8.0"/>
	<vType id="type170" maxSpeed="0.026068179861689002"/>
	<vType id="type171" maxSpeed="0.7457911358237964"/>
	<vType id="type172" maxSpeed="0.7945040446084974"/>
	<vType id="type173" maxSpeed="1.5871017905322546"/>
	<vType id="type174" maxSpeed="0.9977622434136094"/>
	<vType id="type175" maxSpeed="8.0"/>
	<vType id="type176" maxSpeed="8.0"/>
	<vType id="type177" maxSpeed="8.0"/>
	<vType id="type178" maxSpeed="8.0"/>
	<vType id="type179" maxSpeed="3.5816777429467086"/>
	<vType id="type180" maxSpeed="1.5210515122220691"/>
	<vType id="type181" maxSpeed="0.4363104669887279"/>
	<vType id="type182" maxSpeed="8.0"/>
	<vType id="type183" maxSpeed="7.906321070234113"/>
	<vType id="type184" maxSpeed="0.44152602505950506"/>
	<vType id="type185" maxSpeed="8.0"/>
	<vType id="type186" maxSpeed="0.9212939604699599"/>
	<vType id="type187" maxSpeed="2.007171263812743"/>
	<vType id="type188" maxSpeed="1.0662223026792184"/>
	<vType id="type189" maxSpeed="1.1608785148361032"/>
	<vType id="type190" maxSpeed="1.674930925339788"/>
	<vType id="type191" maxSpeed="1.6988558944176924"/>
	<vType id="type192" maxSpeed="8.29539629005059"/>
	<vType id="type193" maxSpeed="1.334255293551492"/>
	<vType id="type194" maxSpeed="0.601328595519152"/>
	<vType id="type195" maxSpeed="0.2870449576182346"/>
	<vType id="type196" maxSpeed="7.129231884057971"/>
	<vType id="type197" maxSpeed="1.868525022209062"/>
	<vType id="type198" maxSpeed="2.0730168426046736"/>
	<vType id="type199" maxSpeed="0.7139643753342384"/>
	<vType id="type200" maxSpeed="1.5083153890984935"/>
	<vType id="type201" maxSpeed="0.37322453556383917"/>
	<vType id="type202" maxSpeed="1.366538692983512"/>
	<vType id="type203" maxSpeed="0.678341413188039"/>
	<vType id="type204" maxSpeed="0.7947107756296695"/>
	<vType id="type205" maxSpeed="1.8028532864205777"/>
	<vType id="type206" maxSpeed="8.0"/>
	<vType id="type207" maxSpeed="1.270729014084507"/>
	<vType id="type208" maxSpeed="2.283096488549617"/>
	<vType id="type209" maxSpeed="1.2626787352455515"/>
	<vType id="type210" maxSpeed="2.579323643291743"/>
	<vType id="type211" maxSpeed="8.51067474048443"/>
	<vType id="type212" maxSpeed="2.059082355892869"/>
	<vType id="type213" maxSpeed="7.711601255886968"/>
	<vType id="type214" maxSpeed="0.029745175972818772"/>
	<vType id="type215" maxSpeed="0.25730361757105946"/>
	<vType id="type216" maxSpeed="2.1498108814899854"/>
	<vType id="type217" maxSpeed="8.0"/>
	<vType id="type218" maxSpeed="0.48074612841482517"/>
	<vType id="type219" maxSpeed="1.0"/>
	<vType id="type220" maxSpeed="2.6753891625615767"/>
	<vType id="type221" maxSpeed="0.8335213623232475"/>
	<vType id="type222" maxSpeed="1.250106920301739"/>
	<vType id="type223" maxSpeed="4.469929793769197"/>
	<vType id="type224" maxSpeed="1.8860912782199104"/>
	<vType id="type225" maxSpeed="1.2632601755786108"/>
	<vType id="type226" maxSpeed="0.014510100316064312"/>
	<vType id="type227" maxSpeed="0.8911573796684639"/>
	<vType id="type228" maxSpeed="1.5697009339603891"/>
	<vType id="type229" maxSpeed="1.2005426356589148"/>
	<vType id="type230" maxSpeed="0.6440851694130714"/>
	<vType id="type231" maxSpeed="6.738454011741682"/>
	<vType id="type232" maxSpeed="5.900460784313726"/>
	<vType id="type233" maxSpeed="0.09429639677239844"/>
	<vType id="type234" maxSpeed="2.0128818854852923"/>
	<vType id="type235" maxSpeed="2.01727183678984"/>
	<vType id="type236" maxSpeed="0.30278891023881416"/>
	<vType id="type237" maxSpeed="3.3471300448430497"/>
	<vType id="type238" maxSpeed="0.5092437584170724"/>
	<vType id="type239" maxSpeed="2.408376187167014"/>
	<vType id="type240" maxSpeed="1.1110212051659756"/>
	<vType id="type241" maxSpeed="1.170913110539846"/>
	<vType id="type242" maxSpeed="2.49280400125039"/>
	<vType id="type243" maxSpeed="1.0"/>
	<vType id="type244" maxSpeed="2.1806609726337793"/>
	<vType id="type245" maxSpeed="1.0"/>
	<vType id="type246" maxSpeed="0.3958065652020814"/>
	<vType id="type247" maxSpeed="1.5342006565162738"/>
	<vType id="type248" maxSpeed="2.294777126099707"/>
	<vType id="type249" maxSpeed="2.178146205715508"/>
	<vType id="type250" maxSpeed="2.194240766073871"/>
	<vType id="type251" maxSpeed="0.08354310283561936"/>
	<vType id="type252" maxSpeed="6.891595197255575"/>
	<vType id="type253" maxSpeed="1.9333656992843529"/>
	<vType id="type254" maxSpeed="1.1781783681214422"/>
	<vType id="type255" maxSpeed="8.273656597774245"/>
	<vType id="type256" maxSpeed="8.0"/>
	<vType id="type257" maxSpeed="8.0"/>
	<vType id="type258" maxSpeed="1.8177332372025954"/>
	<vType id="type259" maxSpeed="1.2352211472011057"/>
	<vType id="type260" maxSpeed="6.626916666666667"/>
	<vType id="type261" maxSpeed="1.989095163806552"/>
	<vType id="type262" maxSpeed="0.010222940922811556"/>
	<vType id="type263" maxSpeed="9.631941176470587"/>
	<vType id="type264" maxSpeed="0.8833753298153036"/>
	<vType id="type265" maxSpeed="1.4271103548485775"/>
	<vType id="type266" maxSpeed="1.4864509210677488"/>
	<vType id="type267" maxSpeed="0.7296698502535077"/>
	<vType id="type268" maxSpeed="1.0437463396778917"/>
	<vType id="type269" maxSpeed="8.408837606837608"/>
	<vType id="type270" maxSpeed="8.095585585585585"/>
	<vType id="type271" maxSpeed="1.5213740069659138"/>
	<vType id="type272" maxSpeed="2.6915009754194332"/>
	<vType id="type273" maxSpeed="5.9795472703062575"/>
	<vType id="type274" maxSpeed="2.303624773811482"/>
	<vType id="type275" maxSpeed="1.6822644107810343"/>
	<vType id="type276" maxSpeed="1.9505243888035892"/>
	<vType id="type277" maxSpeed="1.2549392976806921"/>
	<vType id="type278" maxSpeed="8.0"/>
	<vType id="type279" maxSpeed="1.4519461373744027"/>
	<vType id="type280" maxSpeed="0.8392634805848137"/>
	<vType id="type281" maxSpeed="9.557747035573122"/>
	<vType id="type282" maxSpeed="1.1884752604166666"/>
	<vType id="type283" maxSpeed="0.7592382897366824"/>
	<vType id="type284" maxSpeed="6.049842300556587"/>
	<vType id="type285" maxSpeed="7.694659340659339"/>
	<vType id="type286" maxSpeed="9.69157809983897"/>
	<vType id="type287" maxSpeed="2.2917816042963084"/>
	<vType id="type288" maxSpeed="1.3627764715761195"/>
	<vType id="type289" maxSpeed="5.42096875"/>
	<vType id="type290" maxSpeed="9.423697318007664"/>
	<vType id="type291" maxSpeed="7.602993197278911"/>
	<vType id="type292" maxSpeed="1.6651219731749032"/>
	<vType id="type293" maxSpeed="1.4979410441044108"/>
	<vType id="type294" maxSpeed="7.538298755186721"/>
	<vType id="type295" maxSpeed="2.302132246750568"/>
	<vType id="type296" maxSpeed="7.041589147286821"/>
	<vType id="type297" maxSpeed="9.688934911242601"/>
	<vType id="type298" maxSpeed="8.0"/>
	<vType id="type299" maxSpeed="8.0"/>
	<vType id="type300" maxSpeed="1.4834120568977198"/>
	<vType id="type301" maxSpeed="2.0539206608569347"/>
	<vType id="type302" maxSpeed="7.272871148459382"/>
	<vType id="type303" maxSpeed="1.7407883473698749"/>
	<vType id="type304" maxSpeed="9.247125668449199"/>
	<vType id="type305" maxSpeed="0.6282329869951147"/>
	<vType id="type306" maxSpeed="0.24212664107303664"/>
	<vType id="type307" maxSpeed="1.5804687350378244"/>
	<vType id="type308" maxSpeed="1.0"/>
	<vType id="type309" maxSpeed="1.5218681998659316"/>
	<vType id="type310" maxSpeed="8.0"/>
	<vType id="type311" maxSpeed="1.7013798496544064"/>
	<vType id="type312" maxSpeed="1.4634443343747623"/>
	<vType id="type313" maxSpeed="1.0"/>
	<vType id="type314" maxSpeed="9.575614035087717"/>
	<vType id="type315" maxSpeed="2.476121847363249"/>
	<vType id="type316" maxSpeed="9.09683333333333"/>
	<vType id="type317" maxSpeed="3.9488641304347825"/>
	<vType id="type318" maxSpeed="8.0"/>
	<vType id="type319" maxSpeed="2.6475416004239514"/>
	<vType id="type320" maxSpeed="1.7231112809872227"/>
	<vType id="type321" maxSpeed="9.241243386243385"/>
	<vType id="type322" maxSpeed="8.0"/>
	<vType id="type323" maxSpeed="2.1348294573643414"/>
	<vType id="type324" maxSpeed="8.0"/>
	<vType id="type325" maxSpeed="8.0"/>
	<vType id="type326" maxSpeed="8.0"/>
	<vType id="type327" maxSpeed="6.572919708029198"/>
	<vType id="type328" maxSpeed="1.836314614661654"/>
	<vType id="type329" maxSpeed="1.0"/>
	<vType id="type330" maxSpeed="7.832371364653242"/>
	<vType id="type331" maxSpeed="8.0"/>
	<vType id="type332" maxSpeed="1.7651285282258062"/>
	<vType id="type333" maxSpeed="8.0"/>
	<vType id="type334" maxSpeed="8.0"/>
	<vType id="type335" maxSpeed="4.01391237509608"/>
	<vType id="type336" maxSpeed="3.1968124118476733"/>
	<vType id="type337" maxSpeed="8.0"/>
	<vType id="type338" maxSpeed="7.464597875569044"/>
	<vType id="type339" maxSpeed="5.836846071044134"/>
	<vType id="type340" maxSpeed="8.454888123924267"/>
	<vType id="type341" maxSpeed="2.65494693243593"/>
	<vType id="type342" maxSpeed="1.0"/>
	<vType id="type343" maxSpeed="9.471441774491682"/>
	<vType id="type344" maxSpeed="8.0"/>
	<vType id="type345" maxSpeed="8.0"/>
	<vType id="type346" maxSpeed="1.8741640519946217"/>
	<vType id="type347" maxSpeed="1.5203071792171317"/>
	<vType id="type348" maxSpeed="2.7203341390587217"/>
	<vType id="type349" maxSpeed="6.355516795865634"/>
	<vType id="type350" maxSpeed="9.418575899843505"/>
	<vType id="type351" maxSpeed="8.0"/>
	<vType id="type352" maxSpeed="4.288946666666667"/>
	<vType id="type353" maxSpeed="1.0063323057465814"/>
	<vType id="type354" maxSpeed="8.0"/>
	<vType id="type355" maxSpeed="8.037859477124183"/>
	<vType id="type356" maxSpeed="8.101999999999999"/>
	<vType id="type357" maxSpeed="9.43755844155844"/>
	<vType id="type358" maxSpeed="0.8587052856380138"/>
	<vType id="type359" maxSpeed="2.5504330900243324"/>
	<vType id="type360" maxSpeed="2.309199887965643"/>
	<vType id="type361" maxSpeed="8.0"/>
	<vType id="type362" maxSpeed="0.7918467545143973"/>
	<vType id="type363" maxSpeed="8.633198594024602"/>
	<vType id="type364" maxSpeed="8.0"/>
	<vType id="type365" maxSpeed="1.0632221031685292"/>
	<vType id="type366" maxSpeed="2.069139376218323"/>
	<vType id="type367" maxSpeed="1.5464181885948565"/>
	<vType id="type368" maxSpeed="4.461456310679612"/>
	<vType id="type369" maxSpeed="8.0"/>
	<vType id="type370" maxSpeed="7.891838905775074"/>
	<vType id="type371" maxSpeed="7.687464788732393"/>
	<vType id="type372" maxSpeed="0.06073664207467025"/>
	<vType id="type373" maxSpeed="8.0"/>
	<vType id="type374" maxSpeed="8.0"/>
	<vType id="type375" maxSpeed="8.187883435582823"/>
	<vType id="type376" maxSpeed="6.374833625218914"/>
	<vType id="type377" maxSpeed="8.056097902097903"/>
	<vType id="type378" maxSpeed="1.8681216134858523"/>
	<vType id="type379" maxSpeed="9.87785140562249"/>
	<vType id="type380" maxSpeed="8.323858381502891"/>
	<vType id="type381" maxSpeed="1.990380529570318"/>
	<vType id="type382" maxSpeed="9.796105442176872"/>
	<vType id="type383" maxSpeed="8.0"/>
	<vType id="type384" maxSpeed="8.0"/>
	<vType id="type385" maxSpeed="8.0"/>
	<vType id="type386" maxSpeed="1.9575266745702438"/>
	<vType id="type387" maxSpeed="1.6636334552102376"/>
	<vType id="type388" maxSpeed="9.519941860465114"/>
	<vType id="type389" maxSpeed="7.050815494393476"/>
	<vType id="type390" maxSpeed="8.0"/>
	<vType id="type391" maxSpeed="1.3864813264109865"/>
	<vType id="type392" maxSpeed="3.9599459920409323"/>
	<vType id="type393" maxSpeed="2.644547738693468"/>
	<vType id="type394" maxSpeed="8.0"/>
	<vType id="type395" maxSpeed="1.5396948315399543"/>
	<vType id="type396" maxSpeed="7.8869213483146074"/>
	<vType id="type397" maxSpeed="8.311827411167512"/>
	<vType id="type398" maxSpeed="8.0"/>
	<vType id="type399" maxSpeed="8.031064814814815"/>
	<vType id="type400" maxSpeed="4.828682092555331"/>
	<vType id="type401" maxSpeed="7.867924242424241"/>
	<vType id="type402" maxSpeed="8.295255591054312"/>
	<vType id="type403" maxSpeed="8.0"/>
	<vType id="type404" maxSpeed="7.1503493449781645"/>
	<vType id="type405" maxSpeed="0.8145066010293129"/>
	<vType id="type406" maxSpeed="6.976045576407507"/>
	<vType id="type407" maxSpeed="9.130650557620816"/>
	<vType id="type408" maxSpeed="8.866949458483752"/>
	<vType id="type409" maxSpeed="1.9354837328767123"/>
	<vType id="type410" maxSpeed="9.594316406249998"/>
	<vType id="type411" maxSpeed="8.0"/>
	<vType id="type412" maxSpeed="4.408253796095445"/>
	<vType id="type413" maxSpeed="8.817942176870746"/>
	<vType id="type414" maxSpeed="8.72520426287744"/>
	<vType id="type415" maxSpeed="8.0"/>
	<vType id="type416" maxSpeed="9.931224137931036"/>
	<vType id="type417" maxSpeed="2.6369777777777776"/>
	<vType id="type418" maxSpeed="8.0"/>
	<vType id="type419" maxSpeed="7.788200000000001"/>
	<vType id="type420" maxSpeed="1.0"/>
	<vehicle id="244780644" type="type0" depart="0" departLane="free" departSpeed="max" departPos="last">
		<route id="244780644" edges="29472670 -29472670 92323947#0 92323947#1 69007555#1 gneE43 360632518#1 360632520 360632524#2 360632524#3 360632524#4 -29474860#1 -29474860#0 -29472010#1 -29472010#0 -29407365#3 -29407365#2 -29407365#1 gneE34 -17163948#0 195582877#0 195582877#1 195582877#2 29472670 -29472670 -195582877#2 -195582877#1 -195582877#0 -195582876 -17162472#5 17162472#5 -17162472#5 -17162472#4 12869939#0 -12869939#0 -17162472#2 17162472#2 -17162472#2 -17162472#1 26315489 69007555#1 gneE43 360632518#1 360632520 360632524#2 360632524#3 360632524#4 -29474860#1 -29474860#0 -29472010#1 -29472010#0 -29407365#3 29407365#3 -29407365#3 -29407365#2 -29407365#1 gneE34 -17163948#0 195582877#0 195582877#1 195582877#2 29472670 -29472670 29472670 -29472670 -195582877#2 -195582877#1 -195582877#0 -195582876 195582876 -195582876 -17162472#5 17162472#5 -17162472#5 -17162472#4 -17162472#2 -17162472#1 -17162472#0 29473678#2 gneE43 360632518#1 360632520 360632524#2 360632524#3 360632524#4 -29474860#1 -29474860#0 -29472010#1 -29472010#0 -29407365#3 29407365#3 -29407365#3 -29407365#2 -29407365#1 29407365#1 -29407365#1 gneE34 -17163948#0 195582877#0 195582877#1 195582877#2 29472670 -29472670 -195582877#2 -195582877#1 -195582877#0 -195582876 -17162472#5 -17162472#4 17162472#4 -17162472#4 -17162472#2 17162472#2 -17162472#2 -17162472#1 -17162472#0 17162472#0 -17162472#0 29473678#2 gneE43 gneE44 gneE43 58985549 -58985549 360632518#1 360632520 360632524#2 360632524#3 360632524#4 -29474860#1 -29474860#0 -29472010#1 -29474883 29474883 -29472010#0 -29407365#3 -29407365#2 -29407365#1 gneE34 -17163948#0 195582877#0 195582877#1 195582877#2 29472670 -29472670 -195582877#2 -195582877#1 -195582877#0 -195582876"/>
	</vehicle>
	<vehicle id="244110863" type="type1" depart="10" departLane="free" departSpeed="max" departPos="last">
		<route id="244110863" edges="gneE48"/>
	</vehicle>
	<vehicle id="244740391" type="type2" depart="16" departLane="free" departSpeed="max" departPos="last">
		<route id="244740391" edges="29473484#2 -29473484#2 29473484#2 29473484#3 -29473484#3 29473484#3 27791037 114270761#0 -114270761#0 114270761#0 114270761#1 27759345 -27759345 -114270761#1 25429203#0 25429203#1 gneE27 33912317 33914156 360632526 -360632524#0 360632524#0 360632524#1 360632524#2 360632524#3 360632524#4 360632524#5 -360632524#5 360632524#5 360632524#6"/>
	</vehicle>
	<vehicle id="244780651" type="type3" depart="18" departLane="free" departSpeed="max" departPos="last">
		<route id="244780651" edges="-29472670 29472670 -29472670 29472670 -29472670 29472670 -29472670 -195582877#2 -195582877#1 -195582877#0 -195582876 -30123973#5 30123973#5 -17162472#5 -17162472#4 17162472#4 -17162472#4 12869939#0 -12869939#0 -17162472#2 -17162472#1 -17162472#0 29473678#2 gneE43 360632518#1 360632520 360632524#2 360632524#3 360632524#4 -29474860#1 -29474860#0 29474860#0 -29474860#0 -23294019#2 -23294019#1 -23294019#0 23294019#0 23294019#1 23294019#2 -23294019#2 23294019#2 -29472010#1 -29472010#0 -29407365#3 -29407365#2 -29407365#1 gneE34 -17163948#0 195582877#0 195582877#1 195582877#2 29472670 -29472670 -195582877#2 -195582877#1 -195582877#0 -195582876 -17162472#5 -17162472#4 -17162472#2 -17162472#1 -17162472#0 29473678#2 -29473678#2 29473678#2 gneE43 gneE44 gneE43 360632518#1 360632520 360632524#2 360632524#3 360632524#4 -29474860#1 -29474860#0 29474860#0 -29474860#0 -23294019#2 -23294019#1 -23294019#0 23294019#0 23294019#1 23294019#2 -29472010#1 -29474883 -29474838#3 29472797 68237455 68237456 -29407365#2 -29407365#1 gneE34 -17163948#0 17163948#0 -17163948#0 195582877#0 195582877#1 195582877#2 29472670 -29472670 29472670 -29472670 -195582877#2 -195582877#1 -195582877#0 -195582876 -17162472#5 -17162472#4 17162472#4 -17162472#4 -17162472#2 -17162472#1 -17162472#0 29473678#2 -29473678#2 29473678#2 gneE43 360632518#1 360632520 360632524#2 360632524#3 360632524#4 -29474860#1 -29474860#0 29474860#0 -29474860#0 -23294019#2 -23294019#1 -23294019#0 23294019#0 23294019#1 23294019#2 -29472010#1 -29472010#0 -29407365#3 -29407365#2 -29407365#1 gneE34 -17163948#0 195582877#0 195582877#1 195582877#2 29472670 -29472670 -195582877#2 -195582877#1 -195582877#0 -195582876 -17162472#5 -17162472#4 -17162472#2 -17162472#1 -17162472#0 29473678#2 gneE43 360632518#1 360632520 360632524#2 360632524#3 360632524#4 -29474860#1 -29474860#0 -29472010#1 -29474883 29474883 -29474883 -29474838#3 29472797 68237455 68237456 -29407365#2 -29407365#1 gneE34 -17163948#0 195582877#0 195582877#1 195582877#2 29472670"/>
	</vehicle>
	<vehicle id="244850420" type="type4" depart="25" departLane="free" departSpeed="max" departPos="last">
		<route id="244850420" edges="-114270761#0 -27791037 -29473484#3 29473484#3 -29473484#3 -29473484#2 -29473484#1 -29473484#0"/>
	</vehicle>
	<vehicle id="244780142" type="type5" depart="26" departLane="free" departSpeed="max" departPos="last">
		<route id="244780142" edges="-360632526 -33914156 33914156 360632526 -360632526 -33914156 33914156 360632526 -360632526"/>
	</vehicle>
	<vehicle id="244780634" type="type6" depart="34" departLane="free" departSpeed="max" departPos="last">
		<route id="244780634" edges="-195582877#2 195582877#2 -195582877#2 -195582877#1 -195582877#0 17163948#0 gneE33 29407365#1 29407365#2 -68237456 -68237455 -29472797 -29474838#2 29474838#2 -29474838#2 gneE50 gneE49 29474838#2 29474838#3 29474883 29472010#1 29474860#0 29474860#1 -360632524#4 -360632524#3 -360632524#2 -360632520 360632520 360632524#2 360632524#3 360632524#4 -29474860#1 -29474860#0 -29472010#1 -29474883 29474883 -29474883 -29474838#3 29472797 68237455 68237456 -29407365#2 -29407365#1 gneE34 -17163948#0 195582877#0 -195582877#0 -195582876 -17162472#5 17162472#5 -17162472#5 -17162472#4 17162472#4 -17162472#4 17162472#4 -17162472#4 -17162472#2 -15498784#1 601083336#1 29473678#1 29473678#2 -29473678#2 29473678#2 gneE43 58985549 -58985549 360632518#1 360632520 360632524#2 360632524#3 360632524#4 -29474860#1 -29474860#0 -29472010#1 -29474883 29474883 -29472010#0 -29407365#3 -68237456 68237456 -29407365#2 -29407365#1 gneE34 -17163948#0 195582877#0 195582877#1 -195582877#1 -195582877#0 -195582876 -17162472#5 -17162472#4 17162472#4 -17162472#4 -17162472#2 -17162472#1 17162472#1 -17162472#1 -17162472#0 29473678#2 gneE43 360632518#1 360632520 360632524#2 360632524#3 360632524#4 -29474860#1 -29474860#0 -29472010#1 -29474883 -29474838#3 29472797 68237455 68237456 -29407365#2 -29407365#1 gneE34 -17163948#0 195582877#0 -195582877#0 -195582876 -17162472#5 -17162472#4 -17162472#2 -17162472#1 -17162472#0 29473678#2 gneE43 58985549 -58985549 360632518#1 360632520 360632524#2 360632524#3 360632524#4 -29474860#1 -29474860#0 29474860#0 -29474860#0 -29472010#1 -29474883 29474883 -29474883 -29474838#3 29472797 68237455 68237456 -29407365#2 -29407365#1 gneE34 -17163948#0 -195582876 -17162472#5 -17162472#4 17162472#4 -17162472#4 -17162472#2 -17162472#1 -17162472#0 29473678#2 gneE43 58985549 -58985549 360632518#1 360632520 360632524#2 360632524#3 360632524#4 -29474860#1 -29474860#0 -29472010#1 -29474883 -29474838#3 -29474838#2 gneE50 gneE49 29474838#2 29472797 68237455 68237456 -29407365#2 -29407365#1 gneE34 -17163948#0 195582877#0 195582877#1 195582877#2 29472670 -29472670 -195582877#2 -195582877#1 -195582877#0 -195582876 -17162472#5 -17162472#4 17162472#4 -17162472#4 -17162472#2"/>
	</vehicle>
	<vehicle id="244750263" type="type7" depart="34" departLane="free" departSpeed="max" departPos="last">