<?xml version="1.0" encoding="UTF-8"?>
<routes xmlns:xsi="http://www.w3.org/2001/XMLSchema-instance" xsi:noNamespaceSchemaLocation="http://sumo.sf.net/xsd/routes_file.xsd">
	<vType id="type0" maxSpeed="0.6121565495207668"/>
	<vType id="type1" maxSpeed="0.1432992424242424"/>
	<vType id="type2" maxSpeed="1.2734433825658849"/>
	<vType id="type3" maxSpeed="9.6562874251497"/>
	<vType id="type4" maxSpeed="0.0605596620908131"/>
	<vType id="type5" maxSpeed="1.0045147839272177"/>
	<vType id="type6" maxSpeed="1.6004202719406675"/>
	<vType id="type7" maxSpeed="0.06345933562428407"/>
	<vType id="type8" maxSpeed="1.3077252252252252"/>
	<vType id="type9" maxSpeed="0.11607548552583363"/>
	<vType id="type10" maxSpeed="2.2242181379933714"/>
	<vType id="type11" maxSpeed="1.0"/>
	<vType id="type12" maxSpeed="1.4180077542499254"/>
	<vType id="type13" maxSpeed="0.8530013879250522"/>
	<vType id="type14" maxSpeed="0.12302173913043479"/>
	<vType id="type15" maxSpeed="1.3075230449003867"/>
	<vType id="type16" maxSpeed="0.0902027027027027"/>
	<vType id="type17" maxSpeed="0.8571652719665274"/>
	<vType id="type18" maxSpeed="0.14938338774029744"/>
	<vType id="type19" maxSpeed="0.836796694214876"/>
	<vType id="type20" maxSpeed="0.5050125403081333"/>
	<vType id="type21" maxSpeed="0.032549467275494674"/>
	<vType id="type22" maxSpeed="1.0"/>
	<vType id="type23" maxSpeed="0.2971592592592593"/>
	<vType id="type24" maxSpeed="0.07954013715207746"/>
	<vType id="type25" maxSpeed="0.253432518597237"/>
	<vType id="type26" maxSpeed="0.07454233409610983"/>
	<vType id="type27" maxSpeed="0.046449326718639265"/>
	<vType id="type28" maxSpeed="0.11748757763975155"/>
	<vType id="type29" maxSpeed="1.6108740279937792"/>
	<vType id="type30" maxSpeed="0.31010295582862835"/>
	<vType id="type31" maxSpeed="0.2685269865067466"/>
	<vType id="type32" maxSpeed="0.14471243042671614"/>
	<vType id="type33" maxSpeed="7.934145161290322"/>
	<vType id="type34" maxSpeed="2.6629639975170702"/>
	<vType id="type35" maxSpeed="0.7740396725440807"/>
	<vType id="type36" maxSpeed="0.3319408441342639"/>
	<vType id="type37" maxSpeed="0.1368929503916449"/>
	<vType id="type38" maxSpeed="0.1358891089108911"/>
	<vType id="type39" maxSpeed="0.13694402985074627"/>
	<vType id="type40" maxSpeed="0.06335925925925925"/>
	<vType id="type41" maxSpeed="0.3003212851405622"/>
	<vType id="type42" maxSpeed="0.22070265978562922"/>
	<vType id="type43" maxSpeed="0.07298554122704182"/>
	<vType id="type44" maxSpeed="3.016758286176233"/>
	<vType id="type45" maxSpeed="0.14802232298569934"/>
	<vType id="type46" maxSpeed="0.0766470588235294"/>
	<vType id="type47" maxSpeed="0.04309322033898305"/>
	<vType id="type48" maxSpeed="0.09500943752359381"/>
	<vType id="type49" maxSpeed="0.11297687861271676"/>
	<vType id="type50" maxSpeed="0.031535788742182075"/>
	<vType id="type51" maxSpeed="0.14008015267175572"/>
	<vType id="type52" maxSpeed="0.06122775800711744"/>
	<vType id="type53" maxSpeed="0.10443337484433375"/>
	<vType id="type54" maxSpeed="0.1465177304964539"/>
	<vType id="type55" maxSpeed="0.13099251673887355"/>
	<vType id="type56" maxSpeed="0.1644739976181024"/>
	<vType id="type57" maxSpeed="0.08583418628454453"/>
	<vType id="type58" maxSpeed="0.2985850340136055"/>
	<vType id="type59" maxSpeed="0.15891538461538463"/>
	<vType id="type60" maxSpeed="0.5580698313063946"/>
	<vType id="type61" maxSpeed="1.0"/>
	<vType id="type62" maxSpeed="0.09565944507791714"/>
	<vType id="type63" maxSpeed="0.04432250396196514"/>
	<vType id="type64" maxSpeed="0.11541666666666665"/>
	<vType id="type65" maxSpeed="0.5274888618874037"/>
	<vType id="type66" maxSpeed="0.5403283018867924"/>
	<vType id="type67" maxSpeed="0.11536133415688697"/>
	<vType id="type68" maxSpeed="0.06935799782372144"/>
	<vType id="type69" maxSpeed="0.06281489594742608"/>
	<vType id="type70" maxSpeed="0.20085546875000002"/>
	<vType id="type71" maxSpeed="0.11931345353675452"/>
	<vType id="type72" maxSpeed="0.04278011472275335"/>
	<vType id="type73" maxSpeed="0.0386566037735849"/>
	<vType id="type74" maxSpeed="0.12186012449652142"/>
	<vType id="type75" maxSpeed="0.07757975034674064"/>
	<vType id="type76" maxSpeed="0.06859635811836115"/>
	<vType id="type77" maxSpeed="0.2933345628919218"/>
	<vType id="type78" maxSpeed="0.15770229007633588"/>
	<vType id="type79" maxSpeed="0.3155674603174603"/>
	<vType id="type80" maxSpeed="0.2605389657683904"/>
	<vType id="type81" maxSpeed="0.21110982658959535"/>
	<vType id="type82" maxSpeed="0.9063117606123868"/>
	<vType id="type83" maxSpeed="0.823103448275862"/>
	<vType id="type84" maxSpeed="0.07454970760233919"/>
	<vType id="type85" maxSpeed="9.64543137254902"/>
	<vType id="type86" maxSpeed="0.6304659014179609"/>
	<vType id="type87" maxSpeed="0.44228587319243606"/>
	<vType id="type88" maxSpeed="0.0645"/>
	<vType id="type89" maxSpeed="0.6096111111111111"/>
	<vType id="type90" maxSpeed="0.06919970359392368"/>
	<vType id="type91" maxSpeed="0.04174253731343284"/>
	<vType id="type92" maxSpeed="0.15315315315315314"/>
	<vType id="type93" maxSpeed="0.1399777530589544"/>
	<vType id="type94" maxSpeed="0.2995216572504708"/>
	<vType id="type95" maxSpeed="0.14172083333333332"/>
	<vType id="type96" maxSpeed="0.13208051166290444"/>
	<vType id="type97" maxSpeed="0.2033175168050613"/>
	<vType id="type98" maxSpeed="0.7727078189300411"/>
	<vType id="type99" maxSpeed="0.5523347745521927"/>
	<vType id="type100" maxSpeed="0.5890592592592593"/>
	<vType id="type101" maxSpeed="0.021338976529434398"/>
	<vType id="type102" maxSpeed="0.18020567375886526"/>
	<vType id="type103" maxSpeed="0.28486074017550556"/>
	<vType id="type104" maxSpeed="0.048784615384615385"/>
	<vType id="type105" maxSpeed="0.21360950545921642"/>
	<vType id="type106" maxSpeed="0.23164583333333336"/>
	<vType id="type107" maxSpeed="0.16760113268608415"/>
	<vType id="type108" maxSpeed="0.4654312977099237"/>
	<vType id="type109" maxSpeed="0.24100724637681156"/>
	<vType id="type110" maxSpeed="0.2988591549295775"/>
	<vType id="type111" maxSpeed="0.157384"/>
	<vType id="type112" maxSpeed="0.6266587864460205"/>
	<vType id="type113" maxSpeed="0.0694126679462572"/>
	<vType id="type114" maxSpeed="1.0"/>
	<vType id="type115" maxSpeed="0.04201515151515152"/>
	<vType id="type116" maxSpeed="0.127728285077951"/>
	<vType id="type117" maxSpeed="0.31200757575757576"/>
	<vType id="type118" maxSpeed="0.5564940517844646"/>
	<vType id="type119" maxSpeed="0.22026545166402536"/>
	<vType id="type120" maxSpeed="0.24781847133757962"/>
	<vType id="type121" maxSpeed="0.503830985915493"/>
	<vType id="type122" maxSpeed="8.397076923076922"/>
	<vType id="type123" maxSpeed="0.48373225152129823"/>
	<vType id="type124" maxSpeed="1.0076495425756509"/>
	<vType id="type125" maxSpeed="0.2538854961832061"/>
	<vType id="type126" maxSpeed="0.34349457881567974"/>
	<vType id="type127" maxSpeed="0.6075095492742552"/>
	<vType id="type128" maxSpeed="0.2781691176470588"/>
	<vType id="type129" maxSpeed="0.5818244616009751"/>
	<vType id="type130" maxSpeed="0.12467391304347827"/>
	<vType id="type131" maxSpeed="8.452182130584193"/>
	<vType id="type132" maxSpeed="0.13563497571131158"/>
	<vType id="type133" maxSpeed="1.0862135112593827"/>
	<vType id="type134" maxSpeed="7.5521309192200565"/>
	<vType id="type135" maxSpeed="0.14776984126984127"/>
	<vType id="type136" maxSpeed="0.07508053691275168"/>
	<vType id="type137" maxSpeed="1.18374749498998"/>
	<vType id="type138" maxSpeed="0.10269602577873255"/>
	<vType id="type139" maxSpeed="0.2941700735895339"/>
	<vType id="type140" maxSpeed="0.26628502802241794"/>
	<vType id="type141" maxSpeed="0.6682605042016807"/>
	<vType id="type142" maxSpeed="1.3953307086614175"/>
	<vType id="type143" maxSpeed="0.2552932330827068"/>
	<vType id="type144" maxSpeed="0.1752344827586207"/>
	<vType id="type145" maxSpeed="0.27185925925925924"/>
	<vType id="type146" maxSpeed="1.382269890795632"/>
	<vType id="type147" maxSpeed="0.6645268735806208"/>
	<vType id="type148" maxSpeed="8.3684667802385"/>
	<vType id="type149" maxSpeed="0.24164490861618798"/>
	<vType id="type150" maxSpeed="0.2844436090225564"/>
	<vType id="type151" maxSpeed="8.06615763546798"/>
	<vType id="type152" maxSpeed="0.6207986111111111"/>
	<vType id="type153" maxSpeed="0.5678095238095239"/>
	<vType id="type154" maxSpeed="0.61866"/>
	<vType id="type155" maxSpeed="8.33590448625181"/>
	<vType id="type156" maxSpeed="2.2030400782013686"/>
	<vType id="type157" maxSpeed="8.0"/>
	<vType id="type158" maxSpeed="0.3376714513556619"/>
	<vType id="type159" maxSpeed="8.484093264248703"/>
	<vType id="type160" maxSpeed="6.448786324786325"/>
	<vType id="type161" maxSpeed="1.0"/>
	<vType id="type162" maxSpeed="1.0"/>
	<vType id="type163" maxSpeed="8.0"/>
	<vType id="type164" maxSpeed="2.043109452736318"/>
	<vType id="type165" maxSpeed="1.0"/>
	<vType id="type166" maxSpeed="1.0"/>
	<vType id="type167" maxSpeed="1.0"/>
	<vType id="type168" maxSpeed="8.0"/>
	<vType id="type169" maxSpeed="1.0"/>
	<vType id="type170" maxSpeed="1.0"/>
	<vehicle id="244850451" type="type0" depart="0" departLane="free" departSpeed="max" departPos="last">
		<route id="244850451" edges="-33914156 33914156 360632526 -360632526"/>
	</vehicle>
	<vehicle id="244780327" type="type1" depart="1" departLane="free" departSpeed="max" departPos="last">
		<route id="244780327" edges="30010643#1"/>
	</vehicle>
	<vehicle id="244750687" type="type2" depart="13" departLane="free" departSpeed="max" departPos="last">
		<route id="244750687" edges="-360632524#4 360632524#4 -360632524#4 360632524#4 -360632524#4 360632524#4 -360632524#4 360632524#4"/>
	</vehicle>
	<vehicle id="244670671" type="type3" depart="14" departLane="free" departSpeed="max" departPos="last">
		<route id="244670671" edges="360632524#4 360632524#5 360632524#6"/>
	</vehicle>
	<vehicle id="244750258" type="type4" depart="16" departLane="free" departSpeed="max" departPos="last">
		<route id="244750258" edges="58985549"/>
	</vehicle>
	<vehicle id="244070982" type="type5" depart="28" departLane="free" departSpeed="max" departPos="last">
		<route id="244070982" edges="92323947#1 -92323947#1 92323947#1"/>
	</vehicle>
	<vehicle id="244750286" type="type6" depart="39" departLane="free" departSpeed="max" departPos="last">
		<route id="244750286" edges="360632516 -360632524#3 360632524#3 -360632516 360632516 -360632524#3 360632524#3 -360632516 360632516 -360632524#3 360632524#3 -360632516 360632516 -360632524#3 360632524#3 -360632516 360632516 -360632524#3 360632524#3"/>
	</vehicle>
	<vehicle id="244620977" type="type7" depart="42" departLane="free" departSpeed="max" departPos="last">
		<route id="244620977" edges="-29980149"/>
	</vehicle>
	<vehicle id="244710522" type="type8" depart="47" departLane="free" departSpeed="max" departPos="last">
		<route id="244710522" edges="-360632524#6 -360632524#5 -360632524#4 -360632516 360632516"/>
	</vehicle>
	<vehicle id="244130609" type="type9" depart="55" departLane="free" departSpeed="max" departPos="last">
		<route id="244130609" edges="29474091"/>
	</vehicle>
	<vehicle id="244750690" type="type10" depart="76" departLane="free" departSpeed="max" departPos="last">
		<route id="244750690" edges="-360632524#6 -360632524#5 -360632524#4 -360632524#3 360632524#3 -360632524#3 -360632524#2 -360632524#1 -360632524#0 360632524#0 -360632526 360632526 360632524#1 360632524#2 360632524#3"/>
	</vehicle>
	<vehicle id="269057090" type="type11" depart="92" departLane="free" departSpeed="max" departPos="last">
		<route id="269057090" edges="-29474370#1"/>
	</vehicle>
	<vehicle id="244300678" type="type12" depart="92" departLane="free" departSpeed="max" departPos="last">
		<route id="244300678" edges="360632524#3 -360632516 360632516 -360632524#3 360632524#3 -360632516 360632516 -360632524#3 360632524#3 -360632524#3 360632524#3 -360632516 360632516 -360632524#3 360632524#3 -360632516 360632516 -360632524#3"/>
	</vehicle>
	<vehicle id="244110865" type="type13" depart="101" departLane="free" departSpeed="max" departPos="last">
		<route id="244110865" edges="-29473090 29473090"/>
	</vehicle>
	<vehicle id="244780372" type="type14" depart="106" departLane="free" departSpeed="max" departPos="last">
		<route id="244780372" edges="gneE48"/>
	</vehicle>
	<vehicle id="244750688" type="type15" depart="106" departLane="free" departSpeed="max" departPos="last">
		<route id="244750688" edges="360632524#4 -360632524#4 360632524#4 -360632524#4 360632524#4 -360632524#4 360632524#4 -360632524#4"/>
	</vehicle>
	<vehicle id="244780326" type="type16" depart="113" departLane="free" departSpeed="max" departPos="last">
		<route id="244780326" edges="-25429798"/>
	</vehicle>
	<vehicle id="244110860" type="type17" depart="117" departLane="free" departSpeed="max" departPos="last">
		<route id="244110860" edges="-29473090 29473090"/>
	</vehicle>
	<vehicle id="244780687" type="type18" depart="119" departLane="free" departSpeed="max" departPos="last">
		<route id="244780687" edges="68237456"/>
	</vehicle>
	<vehicle id="244670039" type="type19" depart="120" departLane="free" departSpeed="max" departPos="last">
		<route id="244670039" edges="29471871 -29471871 -23291087#2 23291087#2 -23291087#2 -23291087#1 23294019#0 23294019#1 23294019#2 29474860#0 29474860#1 -360632524#4"/>
	</vehicle>
	<vehicle id="244615809" type="type20" depart="122" departLane="free" departSpeed="max" departPos="last">
		<route id="244615809" edges="360632524#0"/>
	</vehicle>
	<vehicle id="244740948" type="type21" depart="129" departLane="free" departSpeed="max" departPos="last">
		<route id="244740948" edges="-29471871"/>
	</vehicle>
	<vehicle id="244670589" type="type22" depart="160" departLane="free" departSpeed="max" departPos="last">
		<route id="244670589" edges="360632524#4"/>
	</vehicle>
	<vehicle id="244650269" type="type23" depart="185" departLane="free" departSpeed="max" departPos="last">
		<route id="244650269" edges="27687813#0"/>
	</vehicle>
	<vehicle id="244670712" type="type24" depart="230" departLane="free" departSpeed="max" departPos="last">
		<route id="244670712" edges="29396393 284441178"/>
	</vehicle>
	<vehicle id="244810916" type="type25" depart="239" departLane="free" departSpeed="max" departPos="last">
		<route id="244810916" edges="22103866#1"/>
	</vehicle>
	<vehicle id="244750266" type="type26" depart="244" departLane="free" departSpeed="max" departPos="last">
		<route id="244750266" edges="gneE50"/>
	</vehicle>
	<vehicle id="244750203" type="type27" depart="257" departLane="free" departSpeed="max" departPos="last">
		<route id="244750203" edges="-33914156"/>
	</vehicle>
	<vehicle id="244780323" type="type28" depart="257" departLane="free" departSpeed="max" departPos="last">
		<route id="244780323" edges="30010643#1"/>
	</vehicle>
	<vehicle id="244750692" type="type29" depart="281" departLane="free" departSpeed="max" departPos="last">
		<route id="244750692" edges="360632516 -360632524#3 360632524#3 -360632516 360632516 -360632524#3 360632524#3 -360632516 360632516 -360632524#3 360632524#3 -360632516 360632516 -360632524#3 360632524#3 -360632516 360632516 -360632524#3 360632524#3"/>
	</vehicle>
	<vehicle id="244780034" type="type30" depart="284" departLane="free" departSpeed="max" departPos="last">
		<route id="244780034" edges="29473628#1"/>
	</vehicle>
	<vehicle id="244810807" type="type31" depart="293" departLane="free" departSpeed="max" departPos="last">
		<route id="244810807" edges="-22103866#1"/>
	</vehicle>
	<vehicle id="244615628" type="type32" depart="305" departLane="free" departSpeed="max" departPos="last">
		<route id="244615628" edges="27459189 -27459189"/>
	</vehicle>
	<vehicle id="244670989" type="type33" depart="306" departLane="free" departSpeed="max" departPos="last">
		<route id="244670989" edges="360632524#0 360632524#1 360632524#2 360632524#3 360632524#4 360632524#5 360632524#6"/>
	</vehicle>
	<vehicle id="244615560" type="type34" depart="351" departLane="free" departSpeed="max" departPos="last">
		<route id="244615560" edges="-29404218 29404218 -27687813#0 27687813#0 -27687813#0 23294019#2 -29472010#1 -29474883 -29474838#3 -29474838#2 gneE50 gneE49 29474838#2 29474838#3 29474883 29472010#1 29474860#0 29474860#1 -360632524#4 -360632524#3 -360632524#2 -360632520 -360632518#1 58985549 -58985549 gneE44 -69007555#1 69007555#1 -69007555#1 69007555#1"/>
	</vehicle>
	<vehicle id="244110861" type="type35" depart="353" departLane="free" departSpeed="max" departPos="last">
		<route id="244110861" edges="-29473090 29473090"/>
	</vehicle>
	<vehicle id="244770759" type="type36" depart="360" departLane="free" departSpeed="max" departPos="last">
		<route id="244770759" edges="-29407365#2 29407365#2 -68237456 68237456"/>
	</vehicle>
	<vehicle id="244780640" type="type37" depart="364" departLane="free" departSpeed="max" departPos="last">
		<route id="244780640" edges="29472670 -29472670"/>
	</vehicle>
	<vehicle id="244710267" type="type38" depart="368" departLane="free" departSpeed="max" departPos="last">
		<route id="244710267" edges="58985549 -58985549"/>
	</vehicle>
	<vehicle id="244780637" type="type39" depart="398" departLane="free" departSpeed="max" departPos="last">
		<route id="244780637" edges="29472670 -29472670"/>
	</vehicle>
	<vehicle id="244770080" type="type40" depart="406" departLane="free" departSpeed="max" departPos="last">
		<route id="244770080" edges="-58985549"/>
	</vehicle>
	<vehicle id="244020560" type="type41" depart="412" departLane="free" departSpeed="max" departPos="last">
		<route id="244020560" edges="195582885#0"/>
	</vehicle>
	<vehicle id="211621310" type="type42" depart="425" departLane="free" departSpeed="max" departPos="last">
		<route id="211621310" edges="360632524#4"/>
	</vehicle>
	<vehicle id="244850037" type="type43" depart="427" departLane="free" departSpeed="max" departPos="last">
		<route id="244850037" edges="195582880#1"/>
	</vehicle>
	<vehicle id="244750689" type="type44" depart="428" departLane="free" departSpeed="max" departPos="last">
		<route id="244750689" edges="360632524#0 -360632526 360632526 360632524#1 360632524#2 360632524#3 -360632524#3 -360632524#2 -360632524#1 -360632524#0 360632524#0 360632524#1 360632524#2 360632524#3 -360632524#3 -360632524#2 360632524#2 -360632524#2 -360632524#1 -360632524#0"/>
	</vehicle>
	<vehicle id="244690882" type="type45" depart="429" departLane="free" departSpeed="max" departPos="last">
		<route id="244690882" edges="360632516"/>
	</vehicle>
	<vehicle id="244820383" type="type46" depart="436" departLane="free" departSpeed="max" departPos="last">
		<route id="244820383" edges="gneE50"/>
	</vehicle>
	<vehicle id="244780642" type="type47" depart="462" departLane="free" departSpeed="max" departPos="last">
		<route id="244780642" edges="-195582877#2"/>
	</vehicle>
	<vehicle id="244770115" type="type48" depart="489" departLane="free" departSpeed="max" departPos="last">
		<route id="244770115" edges="-360632526"/>
	</vehicle>
	<vehicle id="244750265" type="type49" depart="493" departLane="free" departSpeed="max" departPos="last">
		<route id="244750265" edges="gneE50"/>
	</vehicle>
	<vehicle id="244810915" type="type50" depart="510" departLane="free" departSpeed="max" departPos="last">
		<route id="244810915" edges="-15498366"/>
	</vehicle>
	<vehicle id="244780652" type="type51" depart="521" departLane="free" departSpeed="max" departPos="last">
		<route id="244780652" edges="29472670 -29472670"/>
	</vehicle>
	<vehicle id="244750240" type="type52" depart="534" departLane="free" departSpeed="max" departPos="last">
		<route id="244750240" edges="58985549"/>
	</vehicle>
	<vehicle id="244070301" type="type53" depart="545" departLane="free" departSpeed="max" departPos="last">
		<route id="244070301" edges="360632526"/>
	</vehicle>
	<vehicle id="244870757" type="type54" depart="546" departLane="free" departSpeed="max" departPos="last">
		<route id="244870757" edges="-29474370#1"/>
	</vehicle>
	<vehicle id="244710543" type="type55" depart="550" departLane="free" departSpeed="max" departPos="last">
		<route id="244710543" edges="388339526"/>
	</vehicle>
	<vehicle id="244670683" type="type56" depart="564" departLane="free" departSpeed="max" departPos="last">
		<route id="244670683" edges="29474370#1"/>
	</vehicle>
	<vehicle id="211449050" type="type57" depart="567" departLane="free" departSpeed="max" departPos="last">
		<route id="211449050" edges="360632526"/>
	</vehicle>
	<vehicle id="244820613" type="type58" depart="583" departLane="free" departSpeed="max" departPos="last">
		<route id="244820613" edges="92323947#1"/>
	</vehicle>
	<vehicle id="244740654" type="type59" depart="585" departLane="free" departSpeed="max" departPos="last">
		<route id="244740654" edges="-29474370#1"/>
	</vehicle>
	<vehicle id="244710831" type="type60" depart="585" departLane="free" departSpeed="max" departPos="last">
		<route id="244710831" edges="17162472#2 -17162472#2"/>
	</vehicle>
	<vehicle id="244780644" type="type61" depart="586" departLane="free" departSpeed="max" departPos="last">
		<route id="244780644" edges="29472670"/>
	</vehicle>
	<vehicle id="244690688" type="type62" depart="587" departLane="free" departSpeed="max" departPos="last">
		<route id="244690688" edges="-360632526"/>
	</vehicle>
	<vehicle id="244780646" type="type63" depart="590" departLane="free" departSpeed="max" departPos="last">
		<route id="244780646" edges="-195582877#2"/>
	</vehicle>
	<vehicle id="244700935" type="type64" depart="635" departLane="free" departSpeed="max" departPos="last">
		<route id="244700935" edges="-29980149"/>
	</vehicle>
	<vehicle id="244860580" type="type65" depart="655" departLane="free" departSpeed="max" departPos="last">
		<route id="244860580" edges="29997526"/>
	</vehicle>
	<vehicle id="244780182" type="type66" depart="657" departLane="free" departSpeed="max" departPos="last">
		<route id="244780182" edges="-22103866#1 22103866#1"/>
	</vehicle>
	<vehicle id="244130784" type="type67" depart="675" departLane="free" departSpeed="max" departPos="last">
		<route id="244130784" edges="195582880#1"/>
	</vehicle>
	<vehicle id="244710299" type="type68" depart="688" departLane="free" departSpeed="max" departPos="last">
		<route id="244710299" edges="29472010#1"/>
	</vehicle>
	<vehicle id="244750263" type="type69" depart="692" departLane="free" departSpeed="max" departPos="last">
		<route id="244750263" edges="58985549"/>
	</vehicle>
	<vehicle id="244690712" type="type70" depart="693" departLane="free" departSpeed="max" departPos="last">
		<route id="244690712" edges="-58985549 58985549 -58985549"/>
	</vehicle>
	<vehicle id="244750243" type="type71" depart="696" departLane="free" departSpeed="max" departPos="last">
		<route id="244750243" edges="58985549"/>
	</vehicle>
	<vehicle id="244780636" type="type72" depart="697" departLane="free" departSpeed="max" departPos="last">
		<route id="244780636" edges="-195582877#2"/>
	</vehicle>
	<vehicle id="256444000" type="type73" depart="712" departLane="free" departSpeed="max" departPos="last">
		<route id="256444000" edges="-29474860#1"/>
	</vehicle>
	<vehicle id="244820278" type="type74" depart="716" departLane="free" departSpeed="max" departPos="last">
		<route id="244820278" edges="29473019#3"/>
	</vehicle>
	<vehicle id="244780650" type="type75" depart="752" departLane="free" departSpeed="max" departPos="last">
		<route id="244780650" edges="-195582877#2"/>
	</vehicle>
	<vehicle id="244780635" type="type76" depart="762" departLane="free" departSpeed="max" departPos="last">
		<route id="244780635" edges="29472670"/>
	</vehicle>
	<vehicle id="244260496" type="type77" depart="764" departLane="free" departSpeed="max" departPos="last">
		<route id="244260496" edges="-29472669"/>
	</vehicle>
	<vehicle id="269057088" type="type78" depart="774" departLane="free" departSpeed="max" departPos="last">
		<route id="269057088" edges="-29474370#1"/>
	</vehicle>
	<vehicle id="244260497" type="type79" depart="776" departLane="free" departSpeed="max" departPos="last">
		<route id="244260497" edges="-29472669"/>
	</vehicle>
	<vehicle id="244810801" type="type80" depart="777" departLane="free" departSpeed="max" departPos="last">
		<route id="244810801" edges="22103866#1"/>
	</vehicle>
	<vehicle id="244780648" type="type81" depart="777" departLane="free" departSpeed="max" departPos="last">
		<route id="244780648" edges="29472670 -29472670 29472670"/>
	</vehicle>
	<vehicle id="244860579" type="type82" depart="792" departLane="free" departSpeed="max" departPos="last">
		<route id="244860579" edges="29997526"/>
	</vehicle>
	<vehicle id="244250731" type="type83" depart="795" departLane="free" departSpeed="max" departPos="last">
		<route id="244250731" edges="-22103866#1 22103866#1 -22103866#1"/>
	</vehicle>
	<vehicle id="244700944" type="type84" depart="806" departLane="free" departSpeed="max" departPos="last">
		<route id="244700944" edges="29472010#1"/>
	</vehicle>
	<vehicle id="211441150" type="type85" depart="812" departLane="free" departSpeed="max" departPos="last">
		<route id="211441150" edges="360632524#0 360632524#1 360632524#2 360632524#3 360632524#4 360632524#5 360632524#6"/>
	</vehicle>
	<vehicle id="244820409" type="type86" depart="842" departLane="free" departSpeed="max" departPos="last">
		<route id="244820409" edges="29473628#1"/>
	</vehicle>
	<vehicle id="244250604" type="type87" depart="842" departLane="free" departSpeed="max" departPos="last">
		<route id="244250604" edges="-29472669"/>
	</vehicle>
	<vehicle id="244780686" type="type88" depart="843" departLane="free" departSpeed="max" departPos="last">
		<route id="244780686" edges="-29407365#2"/>
	</vehicle>
	<vehicle id="244780367" type="type89" depart="851" departLane="free" departSpeed="max" departPos="last">
		<route id="244780367" edges="92323947#1"/>
	</vehicle>
	<vehicle id="244870618" type="type90" depart="852" departLane="free" departSpeed="max" departPos="last">
		<route id="244870618" edges="195582880#1"/>
	</vehicle>
	<vehicle id="244780649" type="type91" depart="854" departLane="free" departSpeed="max" departPos="last">
		<route id="244780649" edges="-195582877#2"/>
	</vehicle>
	<vehicle id="244780392" type="type92" depart="868" departLane="free" departSpeed="max" departPos="last">
		<route id="244780392" edges="360632518#1"/>
	</vehicle>
	<vehicle id="244780142" type="type93" depart="883" departLane="free" departSpeed="max" departPos="last">
		<route id="244780142" edges="-360632526"/>
	</vehicle>
	<vehicle id="244260499" type="type94" depart="885" departLane="free" departSpeed="max" departPos="last">
		<route id="244260499" edges="-29472669"/>
	</vehicle>
	<vehicle id="244850891" type="type95" depart="894" departLane="free" departSpeed="max" departPos="last">
		<route id="244850891" edges="29474883"/>
	</vehicle>
	<vehicle id="244780811" type="type96" depart="899" departLane="free" departSpeed="max" departPos="last">
		<route id="244780811" edges="27459189 -27459189 27459189"/>
	</vehicle>
	<vehicle id="244850737" type="type97" depart="905" departLane="free" departSpeed="max" departPos="last">
		<route id="244850737" edges="-58985549 58985549 -58985549"/>
	</vehicle>
	<vehicle id="256405000" type="type98" depart="909" departLane="free" departSpeed="max" departPos="last">
		<route id="256405000" edges="360632524#5 -360632524#5 -29474860#1 29474860#1 -29474860#1 29474860#1 -360632524#4 360632524#4"/>
	</vehicle>
	<vehicle id="244830009" type="type99" depart="912" departLane="free" departSpeed="max" departPos="last">
		<route id="244830009" edges="-92323947#1"/>
	</vehicle>
	<vehicle id="244780657" type="type100" depart="912" departLane="free" departSpeed="max" departPos="last">
		<route id="244780657" edges="-29472669"/>
	</vehicle>
	<vehicle id="244830663" type="type101" depart="923" departLane="free" departSpeed="max" departPos="last">
		<route id="244830663" edges="-195582877#0"/>
	</vehicle>
	<vehicle id="244110703" type="type102" depart="927" departLane="free" departSpeed="max" departPos="last">
		<route id="244110703" edges="527004184#0"/>
	</vehicle>
	<vehicle id="227654770" type="type103" depart="938" departLane="free" departSpeed="max" departPos="last">
		<route id="227654770" edges="-195582885#0"/>
	</vehicle>
	<vehicle id="244690887" type="type104" depart="939" departLane="free" departSpeed="max" departPos="last">
		<route id="244690887" edges="29472010#0"/>
	</vehicle>
	<vehicle id="244820994" type="type105" depart="951" departLane="free" departSpeed="max" departPos="last">
		<route id="244820994" edges="388339526"/>
	</vehicle>
	<vehicle id="256306000" type="type106" depart="957" departLane="free" departSpeed="max" departPos="last">
		<route id="256306000" edges="360632524#4"/>
	</vehicle>
	<vehicle id="244730907" type="type107" depart="966" departLane="free" departSpeed="max" departPos="last">
		<route id="244730907" edges="29474370#1"/>
	</vehicle>
	<vehicle id="244250733" type="type108" depart="970" departLane="free" departSpeed="max" departPos="last">
		<route id="244250733" edges="29473090"/>
	</vehicle>
	<vehicle id="244710542" type="type109" depart="971" departLane="free" departSpeed="max" departPos="last">
		<route id="244710542" edges="388339526"/>
	</vehicle>
	<vehicle id="244740540" type="type110" depart="973" departLane="free" departSpeed="max" departPos="last">
		<route id="244740540" edges="360632516"/>
	</vehicle>
	<vehicle id="244780123" type="type111" depart="974" departLane="free" departSpeed="max" departPos="last">
		<route id="244780123" edges="-68237456"/>
	</vehicle>
	<vehicle id="244780654" type="type112" depart="975" departLane="free" departSpeed="max" departPos="last">
		<route id="244780654" edges="-29472669"/>
	</vehicle>
	<vehicle id="244780634" type="type113" depart="979" departLane="free" departSpeed="max" departPos="last">
		<route id="244780634" edges="29472670"/>
	</vehicle>
	<vehicle id="244870760" type="type114" depart="987" departLane="free" departSpeed="max" departPos="last">
		<route id="244870760" edges="-33914156"/>
	</vehicle>
	<vehicle id="244830882" type="type115" depart="995" departLane="free" departSpeed="max" departPos="last">