<?xml version="1.0" encoding="UTF-8"?>
<routes xmlns:xsi="http://www.w3.org/2001/XMLSchema-instance" xsi:noNamespaceSchemaLocation="http://sumo.sf.net/xsd/routes_file.xsd">
	<vType id="type0" maxSpeed="0.11843580645730727"/>
	<vType id="type1" maxSpeed="1.0"/>
	<vType id="type2" maxSpeed="1.0060804204351017"/>
	<vType id="type3" maxSpeed="1.0"/>
	<vType id="type4" maxSpeed="0.272664474272131"/>
	<vType id="type5" maxSpeed="0.022946923639216243"/>
	<vType id="type6" maxSpeed="1.0"/>
	<vType id="type7" maxSpeed="1.0229728091290005"/>
	<vType id="type8" maxSpeed="0.09374709035762152"/>
	<vType id="type9" maxSpeed="0.8818367847077568"/>
	<vType id="type10" maxSpeed="3.1828052373158755"/>
	<vType id="type11" maxSpeed="0.11756291108566559"/>
	<vType id="type12" maxSpeed="0.25996255640541494"/>
	<vType id="type13" maxSpeed="0.733808408728047"/>
	<vType id="type14" maxSpeed="1.029072953393325"/>
	<vType id="type15" maxSpeed="0.04299774578888514"/>
	<vType id="type16" maxSpeed="0.8742417015217581"/>
	<vType id="type17" maxSpeed="0.675324770576555"/>
	<vType id="type18" maxSpeed="0.25209811597748955"/>
	<vType id="type19" maxSpeed="0.8188681133466765"/>
	<vType id="type20" maxSpeed="0.014022747310879916"/>
	<vType id="type21" maxSpeed="0.8010585549995607"/>
	<vType id="type22" maxSpeed="1.0183205744987183"/>
	<vType id="type23" maxSpeed="0.7182127524248688"/>
	<vType id="type24" maxSpeed="1.0506081932773108"/>
	<vType id="type25" maxSpeed="0.1565072706935123"/>
	<vType id="type26" maxSpeed="0.954813855390055"/>
	<vType id="type27" maxSpeed="1.1419622687694515"/>
	<vType id="type28" maxSpeed="0.017849190904468876"/>
	<vType id="type29" maxSpeed="0.28722335884863665"/>
	<vType id="type30" maxSpeed="1.6168151852693784"/>
	<vType id="type31" maxSpeed="0.9531055040987969"/>
	<vType id="type32" maxSpeed="0.5818755862313072"/>
	<vType id="type33" maxSpeed="0.013202829354553492"/>
	<vType id="type34" maxSpeed="1.0"/>
	<vType id="type35" maxSpeed="1.2811592298663317"/>
	<vType id="type36" maxSpeed="0.6681463328319915"/>
	<vType id="type37" maxSpeed="0.05100740872980452"/>
	<vType id="type38" maxSpeed="0.8615101218122858"/>
	<vType id="type39" maxSpeed="1.0"/>
	<vType id="type40" maxSpeed="1.0"/>
	<vType id="type41" maxSpeed="0.02092416636787379"/>
	<vType id="type42" maxSpeed="1.0"/>
	<vType id="type43" maxSpeed="0.15483513211760327"/>
	<vType id="type44" maxSpeed="0.18410949089683076"/>
	<vType id="type45" maxSpeed="0.03892559792119637"/>
	<vType id="type46" maxSpeed="0.7913386106279505"/>
	<vType id="type47" maxSpeed="0.85515390070922"/>
	<vType id="type48" maxSpeed="0.8232795892631958"/>
	<vType id="type49" maxSpeed="0.7039164276219126"/>
	<vType id="type50" maxSpeed="1.0192366479115174"/>
	<vType id="type51" maxSpeed="0.12856128674431505"/>
	<vType id="type52" maxSpeed="0.27784664183758945"/>
	<vType id="type53" maxSpeed="1.0"/>
	<vType id="type54" maxSpeed="1.0025831034726647"/>
	<vType id="type55" maxSpeed="0.9580398090007521"/>
	<vType id="type56" maxSpeed="1.0"/>
	<vType id="type57" maxSpeed="1.4173553921998627"/>
	<vType id="type58" maxSpeed="0.16310920665150153"/>
	<vType id="type59" maxSpeed="0.7896429323044541"/>
	<vType id="type60" maxSpeed="1.0"/>
	<vType id="type61" maxSpeed="0.7696810503282275"/>
	<vType id="type62" maxSpeed="0.023172867296478137"/>
	<vType id="type63" maxSpeed="0.11314037397945746"/>
	<vType id="type64" maxSpeed="1.0"/>
	<vType id="type65" maxSpeed="1.214460308193126"/>
	<vType id="type66" maxSpeed="0.013366699436947"/>
	<vType id="type67" maxSpeed="0.6698942142380967"/>
	<vType id="type68" maxSpeed="1.0771642026345287"/>
	<vType id="type69" maxSpeed="1.0"/>
	<vType id="type70" maxSpeed="1.0"/>
	<vType id="type71" maxSpeed="0.11567728944142883"/>
	<vType id="type72" maxSpeed="0.7869019621732668"/>
	<vType id="type73" maxSpeed="0.31641389925868274"/>
	<vType id="type74" maxSpeed="1.0"/>
	<vType id="type75" maxSpeed="0.7059826523624748"/>
	<vType id="type76" maxSpeed="0.014152014521640091"/>
	<vType id="type77" maxSpeed="0.6630307245136324"/>
	<vType id="type78" maxSpeed="1.2014117145294276"/>
	<vType id="type79" maxSpeed="0.1318077401029647"/>
	<vType id="type80" maxSpeed="0.43532942717552936"/>
	<vType id="type81" maxSpeed="0.9065709020709015"/>
	<vType id="type82" maxSpeed="1.0"/>
	<vType id="type83" maxSpeed="0.014098822778526346"/>
	<vType id="type84" maxSpeed="0.731384700290185"/>
	<vType id="type85" maxSpeed="1.0"/>
	<vType id="type86" maxSpeed="0.049940048175573196"/>
	<vType id="type87" maxSpeed="1.0"/>
	<vType id="type88" maxSpeed="0.5228263201172644"/>
	<vType id="type89" maxSpeed="0.05867551942186089"/>
	<vType id="type90" maxSpeed="1.1989124714962296"/>
	<vType id="type91" maxSpeed="1.1517482909728303"/>
	<vType id="type92" maxSpeed="1.0"/>
	<vType id="type93" maxSpeed="0.92039315784809"/>
	<vType id="type94" maxSpeed="0.038439547456231425"/>
	<vType id="type95" maxSpeed="0.7347292285518429"/>
	<vType id="type96" maxSpeed="1.4488452918724009"/>
	<vType id="type97" maxSpeed="0.18857870076798425"/>
	<vType id="type98" maxSpeed="0.7027177993754605"/>
	<vType id="type99" maxSpeed="0.07094326365712277"/>
	<vType id="type100" maxSpeed="1.3821932253941192"/>
	<vType id="type101" maxSpeed="0.2646923792964153"/>
	<vType id="type102" maxSpeed="0.23384831806432327"/>
	<vType id="type103" maxSpeed="0.8999302111378773"/>
	<vType id="type104" maxSpeed="0.5342347736011376"/>
	<vType id="type105" maxSpeed="0.2645669194579032"/>
	<vType id="type106" maxSpeed="4.305603156708005"/>
	<vType id="type107" maxSpeed="0.11501854618968092"/>
	<vType id="type108" maxSpeed="0.011718038116831723"/>
	<vType id="type109" maxSpeed="0.4367239889235762"/>
	<vType id="type110" maxSpeed="0.22110996238926223"/>
	<vType id="type111" maxSpeed="0.5467215270221257"/>
	<vType id="type112" maxSpeed="0.5443354969142372"/>
	<vType id="type113" maxSpeed="1.007984784777651"/>
	<vType id="type114" maxSpeed="0.9250412444444439"/>
	<vType id="type115" maxSpeed="0.031474126071466366"/>
	<vType id="type116" maxSpeed="1.3733035933822735"/>
	<vType id="type117" maxSpeed="0.3023269419423883"/>
	<vType id="type118" maxSpeed="1.0"/>
	<vType id="type119" maxSpeed="1.0"/>
	<vType id="type120" maxSpeed="1.0"/>
	<vType id="type121" maxSpeed="0.22872108651057507"/>
	<vType id="type122" maxSpeed="1.123201488982588"/>
	<vType id="type123" maxSpeed="0.30953448760272523"/>
	<vType id="type124" maxSpeed="1.0"/>
	<vType id="type125" maxSpeed="0.48024744965679383"/>
	<vType id="type126" maxSpeed="1.1216126724029978"/>
	<vType id="type127" maxSpeed="1.0764928667278775"/>
	<vType id="type128" maxSpeed="1.0"/>
	<vType id="type129" maxSpeed="0.023939973347239123"/>
	<vType id="type130" maxSpeed="0.37957539695372383"/>
	<vType id="type131" maxSpeed="0.477662505612932"/>
	<vType id="type132" maxSpeed="0.1537138421456486"/>
	<vType id="type133" maxSpeed="0.5935914371539212"/>
	<vType id="type134" maxSpeed="1.1647477409638554"/>
	<vType id="type135" maxSpeed="0.2862213221466802"/>
	<vType id="type136" maxSpeed="0.4218284010094057"/>
	<vType id="type137" maxSpeed="0.018367310120873177"/>
	<vType id="type138" maxSpeed="0.5822205507394186"/>
	<vType id="type139" maxSpeed="0.7519371566926857"/>
	<vType id="type140" maxSpeed="0.05295558086560364"/>
	<vType id="type141" maxSpeed="0.01501776147775495"/>
	<vType id="type142" maxSpeed="0.8100239198961614"/>
	<vType id="type143" maxSpeed="8.0"/>
	<vType id="type144" maxSpeed="8.0"/>
	<vType id="type145" maxSpeed="0.018287961529056974"/>
	<vType id="type146" maxSpeed="1.6825470859985785"/>
	<vType id="type147" maxSpeed="8.0"/>
	<vType id="type148" maxSpeed="8.454888123924267"/>
	<vType id="type149" maxSpeed="9.22825479930192"/>
	<vType id="type150" maxSpeed="0.037579126918946236"/>
	<vType id="type151" maxSpeed="8.382007874015748"/>
	<vType id="type152" maxSpeed="8.0"/>
	<vType id="type153" maxSpeed="0.08748809263709852"/>
	<vType id="type154" maxSpeed="8.452182130584193"/>
	<vType id="type155" maxSpeed="8.207591145833334"/>
	<vType id="type156" maxSpeed="8.380187393526406"/>
	<vType id="type157" maxSpeed="1.4040250414706752"/>
	<vType id="type158" maxSpeed="9.74660714285714"/>
	<vType id="type159" maxSpeed="9.644983974358976"/>
	<vType id="type160" maxSpeed="0.08847420262664166"/>
	<vType id="type161" maxSpeed="1.2806210819595987"/>
	<vType id="type162" maxSpeed="0.2839176902217259"/>
	<vType id="type163" maxSpeed="2.011132791975163"/>
	<vType id="type164" maxSpeed="7.309171348314607"/>
	<vType id="type165" maxSpeed="0.8252782239017475"/>
	<vType id="type166" maxSpeed="7.108627167630058"/>
	<vType id="type167" maxSpeed="0.4855058418621502"/>
	<vType id="type168" maxSpeed="1.5736425651264536"/>
	<vType id="type169" maxSpeed="8.484093264248703"/>
	<vType id="type170" maxSpeed="2.2294024066897813"/>
	<vType id="type171" maxSpeed="0.010378830492308444"/>
	<vType id="type172" maxSpeed="0.2552653226009941"/>
	<vType id="type173" maxSpeed="1.0043087775073283"/>
	<vType id="type174" maxSpeed="8.462"/>
	<vType id="type175" maxSpeed="8.0"/>
	<vType id="type176" maxSpeed="0.5666384982582893"/>
	<vType id="type177" maxSpeed="1.129024098227024"/>
	<vType id="type178" maxSpeed="1.3523099558607163"/>
	<vType id="type179" maxSpeed="7.934145161290322"/>
	<vType id="type180" maxSpeed="9.64543137254902"/>
	<vType id="type181" maxSpeed="0.04919513728778034"/>
	<vType id="type182" maxSpeed="8.397076923076922"/>
	<vType id="type183" maxSpeed="8.452182130584193"/>
	<vType id="type184" maxSpeed="7.5521309192200565"/>
	<vType id="type185" maxSpeed="0.5582930482173316"/>
	<vType id="type186" maxSpeed="0.39219163874262003"/>
	<vType id="type187" maxSpeed="8.33590448625181"/>
	<vType id="type188" maxSpeed="1.263712011577424"/>
	<vType id="type189" maxSpeed="8.0"/>
	<vType id="type190" maxSpeed="0.700651511855558"/>
	<vType id="type191" maxSpeed="0.16233018310691083"/>
	<vType id="type192" maxSpeed="1.700676675487389"/>
	<vType id="type193" maxSpeed="8.0"/>
	<vType id="type194" maxSpeed="1.205526557829386"/>
	<vType id="type195" maxSpeed="1.4266894375589594"/>
	<vType id="type196" maxSpeed="0.3532933953856819"/>
	<vType id="type197" maxSpeed="0.20037886435331234"/>
	<vType id="type198" maxSpeed="0.8356300501388142"/>
	<vType id="type199" maxSpeed="0.40781665227443664"/>
	<vType id="type200" maxSpeed="0.48241952275850575"/>
	<vType id="type201" maxSpeed="0.4298274983004758"/>
	<vType id="type202" maxSpeed="5.4094"/>
	<vType id="type203" maxSpeed="2.043575767947292"/>
	<vType id="type204" maxSpeed="9.357403598971722"/>
	<vType id="type205" maxSpeed="9.203990825688074"/>
	<vType id="type206" maxSpeed="0.7197469413665739"/>
	<vType id="type207" maxSpeed="8.941393034825872"/>
	<vType id="type208" maxSpeed="0.6880610834715312"/>
	<vType id="type209" maxSpeed="6.961399730820996"/>
	<vType id="type210" maxSpeed="1.6285561024492319"/>
	<vType id="type211" maxSpeed="1.2548506599436453"/>
	<vType id="type212" maxSpeed="9.393789173789171"/>
	<vType id="type213" maxSpeed="1.0351336167628302"/>
	<vType id="type214" maxSpeed="8.0"/>
	<vType id="type215" maxSpeed="0.7203590269636576"/>
	<vType id="type216" maxSpeed="0.7203087787316532"/>
	<vType id="type217" maxSpeed="7.691390070921986"/>
	<vType id="type218" maxSpeed="0.8125489471739933"/>
	<vType id="type219" maxSpeed="1.8644934615734687"/>
	<vType id="type220" maxSpeed="7.139579100145138"/>
	<vType id="type221" maxSpeed="8.0"/>
	<vType id="type222" maxSpeed="8.309408783783784"/>
	<vType id="type223" maxSpeed="0.16497916992952233"/>
	<vType id="type224" maxSpeed="8.0"/>
	<vType id="type225" maxSpeed="1.5974529844644316"/>
	<vType id="type226" maxSpeed="1.7619864794591784"/>
	<vType id="type227" maxSpeed="9.81842679127726"/>
	<vType id="type228" maxSpeed="0.9946793179488768"/>
	<vType id="type229" maxSpeed="0.2594445858251686"/>
	<vType id="type230" maxSpeed="0.5442256498966893"/>
	<vType id="type231" maxSpeed="8.99590939373751"/>
	<vType id="type232" maxSpeed="0.2567836655671877"/>
	<vType id="type233" maxSpeed="4.137156644394952"/>
	<vType id="type234" maxSpeed="7.370021723388849"/>
	<vType id="type235" maxSpeed="2.1075829941490722"/>
	<vType id="type236" maxSpeed="0.40192528312987197"/>
	<vType id="type237" maxSpeed="4.197576923076923"/>
	<vType id="type238" maxSpeed="2.1358240637450194"/>
	<vType id="type239" maxSpeed="1.5126982134234668"/>
	<vType id="type240" maxSpeed="2.8395902717617942"/>
	<vType id="type241" maxSpeed="2.1038255489323188"/>
	<vType id="type242" maxSpeed="0.9210238451668089"/>
	<vType id="type243" maxSpeed="0.07307377049180327"/>
	<vType id="type244" maxSpeed="0.08401587301587302"/>
	<vType id="type245" maxSpeed="8.129580209895053"/>
	<vType id="type246" maxSpeed="0.3930928092809281"/>
	<vType id="type247" maxSpeed="0.3991303306181121"/>
	<vType id="type248" maxSpeed="5.295123789020452"/>
	<vType id="type249" maxSpeed="1.375312210263232"/>
	<vType id="type250" maxSpeed="1.7154242033687392"/>
	<vType id="type251" maxSpeed="2.1169543568464713"/>
	<vType id="type252" maxSpeed="6.738454011741682"/>
	<vType id="type253" maxSpeed="0.06094270933128952"/>
	<vType id="type254" maxSpeed="8.29778716216216"/>
	<vType id="type255" maxSpeed="2.2036340649337514"/>
	<vType id="type256" maxSpeed="0.7699386385426654"/>
	<vType id="type257" maxSpeed="7.615953488372091"/>
	<vType id="type258" maxSpeed="1.6277953470777387"/>
	<vType id="type259" maxSpeed="8.144178403755868"/>
	<vType id="type260" maxSpeed="0.7938696512490727"/>
	<vType id="type261" maxSpeed="0.7373761797051712"/>
	<vType id="type262" maxSpeed="8.382747440273036"/>
	<vType id="type263" maxSpeed="1.5187444394634304"/>
	<vType id="type264" maxSpeed="0.7765399711630888"/>
	<vType id="type265" maxSpeed="2.5594628026153"/>
	<vType id="type266" maxSpeed="2.1471140176286605"/>
	<vType id="type267" maxSpeed="1.2550659594095943"/>
	<vType id="type268" maxSpeed="1.5358097615085968"/>
	<vType id="type269" maxSpeed="0.7147655037789677"/>
	<vType id="type270" maxSpeed="1.2599386045851373"/>
	<vType id="type271" maxSpeed="8.0"/>
	<vType id="type272" maxSpeed="1.548487535864665"/>
	<vType id="type273" maxSpeed="1.0"/>
	<vType id="type274" maxSpeed="8.0"/>
	<vType id="type275" maxSpeed="1.4411769205551306"/>
	<vType id="type276" maxSpeed="8.423236301369863"/>
	<vType id="type277" maxSpeed="0.6931504571903575"/>
	<vType id="type278" maxSpeed="8.32346869712352"/>
	<vType id="type279" maxSpeed="7.5216666666666665"/>
	<vType id="type280" maxSpeed="8.0"/>
	<vType id="type281" maxSpeed="1.0"/>
	<vType id="type282" maxSpeed="9.589025341130604"/>
	<vType id="type283" maxSpeed="1.8409864516393115"/>
	<vType id="type284" maxSpeed="7.4393943139678615"/>
	<vType id="type285" maxSpeed="1.8924285044538214"/>
	<vType id="type286" maxSpeed="0.616843223715667"/>
	<vType id="type287" maxSpeed="9.64543137254902"/>
	<vType id="type288" maxSpeed="1.3861225671918445"/>
	<vType id="type289" maxSpeed="2.1452626629047424"/>
	<vType id="type290" maxSpeed="6.6548976982097185"/>
	<vType id="type291" maxSpeed="4.485925925925926"/>
	<vType id="type292" maxSpeed="2.00129944547135"/>
	<vType id="type293" maxSpeed="1.8792229181164464"/>
	<vType id="type294" maxSpeed="8.0"/>
	<vType id="type295" maxSpeed="1.7495859167404786"/>
	<vType id="type296" maxSpeed="7.007364672364672"/>
	<vType id="type297" maxSpeed="7.951563909774436"/>
	<vType id="type298" maxSpeed="7.312954990215264"/>
	<vType id="type299" maxSpeed="0.15543237903056292"/>
	<vType id="type300" maxSpeed="0.565875403989747"/>
	<vType id="type301" maxSpeed="2.986059493206024"/>
	<vType id="type302" maxSpeed="0.6415314285714285"/>
	<vType id="type303" maxSpeed="8.0"/>
	<vType id="type304" maxSpeed="1.9506423486121116"/>
	<vType id="type305" maxSpeed="1.0"/>
	<vType id="type306" maxSpeed="1.5089413904787263"/>
	<vType id="type307" maxSpeed="8.408837606837608"/>
	<vType id="type308" maxSpeed="1.3294123859411968"/>
	<vType id="type309" maxSpeed="0.9911306005719732"/>
	<vType id="type310" maxSpeed="1.5875537913302358"/>
	<vType id="type311" maxSpeed="8.584938917975567"/>
	<vType id="type312" maxSpeed="7.54162726008345"/>
	<vType id="type313" maxSpeed="6.414051724137931"/>
	<vType id="type314" maxSpeed="0.5905261522527189"/>
	<vType id="type315" maxSpeed="2.2135482207323367"/>
	<vType id="type316" maxSpeed="8.0"/>
	<vType id="type317" maxSpeed="8.0"/>
	<vType id="type318" maxSpeed="9.12647495361781"/>
	<vType id="type319" maxSpeed="0.1206346353920363"/>
	<vType id="type320" maxSpeed="6.426769801980197"/>
	<vType id="type321" maxSpeed="9.650864440078584"/>
	<vType id="type322" maxSpeed="8.0"/>
	<vType id="type323" maxSpeed="0.6839257865017477"/>
	<vType id="type324" maxSpeed="8.0"/>
	<vType id="type325" maxSpeed="6.359651347068146"/>
	<vType id="type326" maxSpeed="7.8063133640553"/>
	<vType id="type327" maxSpeed="2.4162593431483583"/>
	<vType id="type328" maxSpeed="2.102309782608696"/>
	<vType id="type329" maxSpeed="8.0"/>
	<vType id="type330" maxSpeed="0.5480991169305726"/>
	<vType id="type331" maxSpeed="3.0288518518518517"/>
	<vType id="type332" maxSpeed="8.0"/>
	<vType id="type333" maxSpeed="8.0"/>
	<vType id="type334" maxSpeed="1.89771109637489"/>
	<vType id="type335" maxSpeed="8.784232142857142"/>
	<vType id="type336" maxSpeed="9.538427184466018"/>
	<vType id="type337" maxSpeed="1.562873791481579"/>
	<vType id="type338" maxSpeed="4.476372161895361"/>
	<vType id="type339" maxSpeed="8.0"/>
	<vType id="type340" maxSpeed="8.0"/>
	<vType id="type341" maxSpeed="1.670086357947434"/>
	<vType id="type342" maxSpeed="9.303579545454543"/>
	<vType id="type343" maxSpeed="1.5043677334292227"/>
	<vType id="type344" maxSpeed="1.0"/>
	<vType id="type345" maxSpeed="3.8790093847758085"/>
	<vType id="type346" maxSpeed="8.0"/>
	<vType id="type347" maxSpeed="8.646152019002376"/>
	<vType id="type348" maxSpeed="0.12334545895477143"/>
	<vType id="type349" maxSpeed="0.06498529411764706"/>
	<vType id="type350" maxSpeed="9.015329861111109"/>
	<vType id="type351" maxSpeed="6.076020066889631"/>
	<vType id="type352" maxSpeed="8.0"/>
	<vType id="type353" maxSpeed="1.9196138856812939"/>
	<vType id="type354" maxSpeed="6.673158914728681"/>
	<vType id="type355" maxSpeed="9.071039370078742"/>
	<vType id="type356" maxSpeed="1.313917351377477"/>
	<vType id="type357" maxSpeed="6.8783300589390945"/>
	<vType id="type358" maxSpeed="2.8189830508474576"/>
	<vType id="type359" maxSpeed="8.0"/>
	<vType id="type360" maxSpeed="8.780249999999999"/>
	<vType id="type361" maxSpeed="2.4182890365448504"/>
	<vType id="type362" maxSpeed="9.601759259259257"/>
	<vType id="type363" maxSpeed="1.749749685534591"/>
	<vType id="type364" maxSpeed="8.0"/>
	<vType id="type365" maxSpeed="2.4318896866840736"/>
	<vType id="type366" maxSpeed="9.22825479930192"/>
	<vType id="type367" maxSpeed="5.842401960784313"/>
	<vType id="type368" maxSpeed="0.2600207157654118"/>
	<vType id="type369" maxSpeed="3.969720715835141"/>
	<vType id="type370" maxSpeed="2.251036721068249"/>
	<vType id="type371" maxSpeed="8.512448979591838"/>
	<vType id="type372" maxSpeed="3.2183870967741948"/>
	<vType id="type373" maxSpeed="5.994982876712328"/>
	<vType id="type374" maxSpeed="4.477962819519751"/>
	<vType id="type375" maxSpeed="2.8846212188023634"/>
	<vType id="type376" maxSpeed="8.056682389937107"/>
	<vType id="type377" maxSpeed="8.0"/>
	<vType id="type378" maxSpeed="9.17939393939394"/>
	<vType id="type379" maxSpeed="7.809682034976151"/>
	<vType id="type380" maxSpeed="8.0"/>
	<vType id="type381" maxSpeed="1.5998910151892216"/>
	<vType id="type382" maxSpeed="0.19193100436681224"/>
	<vType id="type383" maxSpeed="9.085356200527704"/>
	<vType id="type384" maxSpeed="0.7835250463821893"/>
	<vType id="type385" maxSpeed="6.647393822393822"/>
	<vType id="type386" maxSpeed="8.0"/>
	<vType id="type387" maxSpeed="7.956977272727271"/>
	<vType id="type388" maxSpeed="6.057380073800738"/>
	<vType id="type389" maxSpeed="8.0"/>
	<vType id="type390" maxSpeed="6.439761904761905"/>
	<vType id="type391" maxSpeed="6.430410022779044"/>
	<vType id="type392" maxSpeed="4.467701612903226"/>
	<vType id="type393" maxSpeed="8.777509339975092"/>
	<vType id="type394" maxSpeed="7.514949348769897"/>
	<vType id="type395" maxSpeed="1.3625863120653896"/>
	<vType id="type396" maxSpeed="8.29778716216216"/>
	<vType id="type397" maxSpeed="1.7178626434071982"/>
	<vType id="type398" maxSpeed="8.205284900284902"/>
	<vType id="type399" maxSpeed="9.048778359511342"/>
	<vType id="type400" maxSpeed="9.594316406249998"/>
	<vType id="type401" maxSpeed="9.519941860465114"/>
	<vType id="type402" maxSpeed="8.0"/>
	<vType id="type403" maxSpeed="8.0"/>
	<vType id="type404" maxSpeed="8.0"/>
	<vType id="type405" maxSpeed="8.0"/>
	<vType id="type406" maxSpeed="9.86403614457831"/>
	<vType id="type407" maxSpeed="8.0"/>
	<vType id="type408" maxSpeed="6.097202680067001"/>
	<vType id="type409" maxSpeed="6.219086956521739"/>
	<vType id="type410" maxSpeed="8.21453177257525"/>
	<vType id="type411" maxSpeed="8.440360824742266"/>
	<vType id="type412" maxSpeed="2.3204675925925926"/>
	<vType id="type413" maxSpeed="3.6955979480602754"/>
	<vType id="type414" maxSpeed="8.35423469387755"/>
	<vType id="type415" maxSpeed="1.0"/>
	<vType id="type416" maxSpeed="9.059550561797753"/>
	<vType id="type417" maxSpeed="9.64425641025641"/>
	<vType id="type418" maxSpeed="6.667881640887693"/>
	<vType id="type419" maxSpeed="8.0"/>
	<vType id="type420" maxSpeed="2.8283812636165577"/>
	<vType id="type421" maxSpeed="3.146649805447471"/>
	<vType id="type422" maxSpeed="7.873116490166415"/>
	<vType id="type423" maxSpeed="6.751666666666666"/>
	<vType id="type424" maxSpeed="8.915226860254082"/>
	<vType id="type425" maxSpeed="8.663650793650792"/>
	<vType id="type426" maxSpeed="8.0"/>
	<vType id="type427" maxSpeed="7.867326732673267"/>
	<vType id="type428" maxSpeed="8.440360824742266"/>
	<vType id="type429" maxSpeed="8.0"/>
	<vType id="type430" maxSpeed="8.0"/>
	<vehicle id="244660507" type="type0" depart="0" departLane="free" departSpeed="max" departPos="last">
		<route id="244660507" edges="-15498075 15498075 -15498075 15498075 -15498075 15498075 -15498075 15498075 -15498075 15498075 -15498075 15498075 -15498075 15498075 -15498075"/>
	</vehicle>
	<vehicle id="244810915" type="type1" depart="39" departLane="free" departSpeed="max" departPos="last">
		<route id="244810915" edges="-15498366"/>
	</vehicle>
	<vehicle id="244100114" type="type2" depart="42" departLane="free" departSpeed="max" departPos="last">
		<route id="244100114" edges="-22103866#1 22103866#1 -22103866#1 22103866#1 -22103866#1 22103866#1 29473424 -12869939#3 -12869939#2 -12869939#1 -12869939#0 -17162472#2 17162472#2 -17162472#2 -17162472#1 17162472#1 -17162472#1 -17162472#0 17162472#0 -17162472#0 29473678#2 gneE43 360632518#1 360632520 360632524#2 360632524#3 360632524#4 -29474860#1 -29474860#0 -23294019#2 23294019#2 -23294019#2 -23294019#1 23294019#1 -23294019#1 -23294019#0 -29404961 -29404935#0 -30123973#5 -30123973#4 gneE5 -527004184#0 527004184#0 -527004184#0 29473090 22103866#1 -22103866#1 22103866#1 29473424 -12869939#3 -12869939#2 -12869939#1 12869939#1 -12869939#1 -12869939#0 -17162472#2 17162472#2 -17162472#2 -17162472#1 -17162472#0 29473678#2 -29473678#2 29473678#2 gneE43 360632518#1 360632520 360632524#2 360632524#3 360632524#4 -29474860#1 -29474860#0 -29472010#1 -29472010#0 -29407365#3 29407365#3 -29407365#3 -29407365#2 -29407365#1 gneE34 -17163948#0 -195582876 195582876 -195582876 -30123973#5 -30123973#4 gneE5 -527004184#0 29473090 -29473090 29473090 22103866#1 -22103866#1 22103866#1 29473424 -12869939#3 -12869939#2 -12869939#1 12869939#1 -12869939#1 -12869939#0 17162472#4 -17162472#4 31255861 -92323947#0 -195582877#2 -195582877#1 -195582877#0 -195582876 -17162472#5 17162472#5 29404935#0 29404961 23294019#0 23294019#1 23294019#2 29474860#0 29474860#1 -360632524#4 -360632524#3 -360632524#2 -360632524#1 -360632526 -33914156 -33912317 -gneE27 29473019#0 29473019#1 29473019#2 29473019#3 29473019#4 29473019#5 29473019#6 12869939#2 12869939#3 -29473424 -22103866#1 22103866#1 -22103866#1 22103866#1 29473424 -12869939#3 -12869939#2 -12869939#1 -12869939#0 -17162472#2 17162472#2 -17162472#2 -17162472#1 -17162472#0 29473678#2 gneE43 360632518#1 360632520 360632524#2 360632524#3 360632524#4 -29474860#1 -29474860#0 29474860#0 -29474860#0 -29472010#1 -29472010#0 29472010#0 -29472010#0 -29407365#3 -29407365#2 -29407365#1 gneE34 -17163948#0 17163948#0 -17163948#0 -195582876 -30123973#5 -30123973#4 gneE5 -527004184#0 29473090 22103866#1 -22103866#1 22103866#1 -22103866#1 22103866#1 29473424 -12869939#3 -12869939#2 -12869939#1 -12869939#0 17162472#4"/>
	</vehicle>
	<vehicle id="244780686" type="type3" depart="46" departLane="free" departSpeed="max" departPos="last">
		<route id="244780686" edges="-29407365#2"/>
	</vehicle>
	<vehicle id="244615628" type="type4" depart="49" departLane="free" departSpeed="max" departPos="last">
		<route id="244615628" edges="-27459189 27459189 -27459189 27459189 -27459189 27459189 -27459189 27459189 -27459189 27459189 -27459189 27459189 gneE4 30123973#4 30123973#5 -17162472#5 -17162472#4 17162472#4 -17162472#4 12869939#0 479495084#2 601083337 601083336#0 601083336#1 -601083336#1 601083336#1 -601083336#1 -15498784#0 29473019#2 29473019#3 -30010688 30010688 29473019#4 29473019#5 29473019#6 593311097#0 -593311097#0 593311097#0 593311097#1 -593311097#1 593311097#1 593311097#4 gneE5 -527004184#0 527004184#0 gneE4 30123973#4 30123973#5 -17162472#5 17162472#5 -30123973#5 -30123973#4 gneE5 -27459189 27459189 -27459189 27459189"/>
	</vehicle>
	<vehicle id="244780811" type="type5" depart="65" departLane="free" departSpeed="max" departPos="last">
		<route id="244780811" edges="27459189 -27459189 27459189 -27459189 27459189 -27459189 27459189 -27459189 27459189 -27459189 27459189"/>
	</vehicle>
	<vehicle id="244700935" type="type6" depart="70" departLane="free" departSpeed="max" departPos="last">
		<route id="244700935" edges="-29980149"/>
	</vehicle>
	<vehicle id="244250731" type="type7" depart="72" departLane="free" departSpeed="max" departPos="last">
		<route id="244250731" edges="-22103866#1 22103866#1 -22103866#1 22103866#1 -22103866#1 22103866#1 29473424 -12869939#3 -12869939#2 -12869939#1 479495084#2 601083337 601083336#0 15498784#1 -17162472#1 -17162472#0 -29473678#1 -29473678#0 29473019#0 29473019#1 29473019#2 29473019#3 29473019#4 29473019#5 29473019#6 -12869939#1 -12869939#0 17162472#4 17162472#5 -30123973#5 -30123973#4 30123973#4 30123973#5 195582876 195582877#0 195582877#1 -195582877#1 -195582877#0 17163948#0 gneE33 29407365#1 -29407365#1 29407365#1 29407365#2 -68237456 68237456 -68237456 -68237455 -29472797 29474838#3 29474883 29472010#1 -23294019#2 -23294019#1 -23294019#0 23294019#0 23294019#1 23294019#2 29474860#0 29474860#1 360632524#5 195582885#0 -195582885#0 -360632524#5 -360632524#4 -360632524#3 -360632522 360632522 -360632524#2 -360632524#1 -360632526 -33914156 -33912317 -gneE27 29473678#0 29473678#1 29473678#2 gneE43 58985549 -58985549 360632518#1 360632520 360632524#2 360632524#3 360632524#4 -29474860#1 -29474860#0 -29472010#1 -29474883 -29474838#3 -29474838#2 gneE50 gneE49 29474838#2 29474838#3 29474883 -29472010#0 -29407365#3 -29407365#2 -29407365#1 29407365#1 -29407365#1 gneE34 -17163948#0 -195582876 -30123973#5 -30123973#4 gneE5 -527004184#0 29473090 22103866#1 -22103866#1 22103866#1 -22103866#1 -29473090 29473090 -29473090 29473090 22103866#1 29473424 -12869939#3 -12869939#2 -12869939#1 -12869939#0 -17162472#2 -17162472#1 -17162472#0 29473678#2 gneE43 360632518#1 360632520 360632524#2 360632524#3 360632524#4 -29474860#1 -29474860#0 -23294019#2 23294019#2 -23294019#2 -23294019#1 -23294019#0 -29404961 29404961 -29404961 -29404935#0 29404935#0 -29404935#0 -30123973#5 -30123973#4 gneE5 -527004184#0 29473090 -29473090 29473090 22103866#1 -22103866#1 22103866#1 29473424 -12869939#3 -12869939#2 12869939#2 -12869939#2 -12869939#1 12869939#1 -12869939#1 479495084#2 601083337 601083336#0 601083336#1 29473678#1 29473678#2 -29473678#2 29473678#2 gneE43 gneE44 gneE43 360632518#1 360632520 360632524#2 360632524#3 360632524#4 -29474860#1 -29474860#0 -29472010#1 -29472010#0 -29407365#3 -29407365#2 -29407365#1 gneE34 -17163948#0 -195582876 -30123973#5 -30123973#4 gneE5 -527004184#0 29473090 22103866#1 -22103866#1"/>
	</vehicle>
	<vehicle id="244820613" type="type8" depart="93" departLane="free" departSpeed="max" departPos="last">
		<route id="244820613" edges="-92323947#1 92323947#1 -92323947#1 92323947#1 -92323947#1 92323947#1"/>
	</vehicle>
	<vehicle id="244615560" type="type9" depart="198" departLane="free" departSpeed="max" departPos="last">