<?xml version="1.0" encoding="UTF-8"?>
<routes xmlns:xsi="http://www.w3.org/2001/XMLSchema-instance" xsi:noNamespaceSchemaLocation="http://sumo.sf.net/xsd/routes_file.xsd">
	<vType id="type0" maxSpeed="0.9509024291426653"/>
	<vType id="type1" maxSpeed="1.0"/>
	<vType id="type2" maxSpeed="1.0"/>
	<vType id="type3" maxSpeed="0.32202016339301254"/>
	<vType id="type4" maxSpeed="0.6449211899699517"/>
	<vType id="type5" maxSpeed="0.031788093626420606"/>
	<vType id="type6" maxSpeed="1.0"/>
	<vType id="type7" maxSpeed="1.5072200577451618"/>
	<vType id="type8" maxSpeed="0.2487072156628831"/>
	<vType id="type9" maxSpeed="0.4500300226052556"/>
	<vType id="type10" maxSpeed="0.7079184144295297"/>
	<vType id="type11" maxSpeed="1.0"/>
	<vType id="type12" maxSpeed="1.0"/>
	<vType id="type13" maxSpeed="1.0"/>
	<vType id="type14" maxSpeed="0.8908704291142335"/>
	<vType id="type15" maxSpeed="0.014479608757975212"/>
	<vType id="type16" maxSpeed="1.0"/>
	<vType id="type17" maxSpeed="0.47507571072671706"/>
	<vType id="type18" maxSpeed="0.5674717397781246"/>
	<vType id="type19" maxSpeed="0.7670969760912715"/>
	<vType id="type20" maxSpeed="1.270358944197899"/>
	<vType id="type21" maxSpeed="0.04447377225264566"/>
	<vType id="type22" maxSpeed="0.08800772607550483"/>
	<vType id="type23" maxSpeed="1.1517972011682713"/>
	<vType id="type24" maxSpeed="0.6552199848161668"/>
	<vType id="type25" maxSpeed="0.016088776335689916"/>
	<vType id="type26" maxSpeed="0.7466758376559647"/>
	<vType id="type27" maxSpeed="0.46359062814431506"/>
	<vType id="type28" maxSpeed="0.907972310002271"/>
	<vType id="type29" maxSpeed="0.9911701147796508"/>
	<vType id="type30" maxSpeed="0.8871968912826095"/>
	<vType id="type31" maxSpeed="0.1765696427152581"/>
	<vType id="type32" maxSpeed="0.523016311520121"/>
	<vType id="type33" maxSpeed="0.1450495982764038"/>
	<vType id="type34" maxSpeed="1.114350752940764"/>
	<vType id="type35" maxSpeed="1.0"/>
	<vType id="type36" maxSpeed="0.6373581640857136"/>
	<vType id="type37" maxSpeed="0.7610282582813929"/>
	<vType id="type38" maxSpeed="0.5925060797452631"/>
	<vType id="type39" maxSpeed="1.0069320810261444"/>
	<vType id="type40" maxSpeed="1.0"/>
	<vType id="type41" maxSpeed="0.8439748191802837"/>
	<vType id="type42" maxSpeed="0.2658784820845756"/>
	<vType id="type43" maxSpeed="0.8651477565526434"/>
	<vType id="type44" maxSpeed="1.032445418676019"/>
	<vType id="type45" maxSpeed="0.8031490172553722"/>
	<vType id="type46" maxSpeed="0.8997688935647916"/>
	<vType id="type47" maxSpeed="0.1449208499714775"/>
	<vType id="type48" maxSpeed="1.3303777845481102"/>
	<vType id="type49" maxSpeed="1.0"/>
	<vType id="type50" maxSpeed="1.0400584979683343"/>
	<vType id="type51" maxSpeed="1.0"/>
	<vType id="type52" maxSpeed="1.0"/>
	<vType id="type53" maxSpeed="0.6332823544073921"/>
	<vType id="type54" maxSpeed="0.9603199412754687"/>
	<vType id="type55" maxSpeed="1.0"/>
	<vType id="type56" maxSpeed="0.03944011606039439"/>
	<vType id="type57" maxSpeed="0.014097073265852404"/>
	<vType id="type58" maxSpeed="0.40609327190236705"/>
	<vType id="type59" maxSpeed="0.014239342633017429"/>
	<vType id="type60" maxSpeed="0.23533808773823636"/>
	<vType id="type61" maxSpeed="0.405115522577015"/>
	<vType id="type62" maxSpeed="1.2104963287207018"/>
	<vType id="type63" maxSpeed="0.29053165374677004"/>
	<vType id="type64" maxSpeed="0.17032625733351248"/>
	<vType id="type65" maxSpeed="0.11925454841099206"/>
	<vType id="type66" maxSpeed="1.0"/>
	<vType id="type67" maxSpeed="0.07331085170773886"/>
	<vType id="type68" maxSpeed="1.1868675377733953"/>
	<vType id="type69" maxSpeed="1.0390770664462925"/>
	<vType id="type70" maxSpeed="0.1109965056672047"/>
	<vType id="type71" maxSpeed="1.0"/>
	<vType id="type72" maxSpeed="0.7354677479196483"/>
	<vType id="type73" maxSpeed="1.0"/>
	<vType id="type74" maxSpeed="1.0"/>
	<vType id="type75" maxSpeed="1.0"/>
	<vType id="type76" maxSpeed="0.26051577473888227"/>
	<vType id="type77" maxSpeed="0.6882136296191624"/>
	<vType id="type78" maxSpeed="0.5752128504137044"/>
	<vType id="type79" maxSpeed="1.0"/>
	<vType id="type80" maxSpeed="0.5829881328137401"/>
	<vType id="type81" maxSpeed="0.8126526169274962"/>
	<vType id="type82" maxSpeed="0.6860750564334085"/>
	<vType id="type83" maxSpeed="1.059813483582669"/>
	<vType id="type84" maxSpeed="0.9638992497699765"/>
	<vType id="type85" maxSpeed="0.7062488760380113"/>
	<vType id="type86" maxSpeed="0.7494482520963355"/>
	<vType id="type87" maxSpeed="0.1659090256851772"/>
	<vType id="type88" maxSpeed="1.0"/>
	<vType id="type89" maxSpeed="0.5568141294309867"/>
	<vType id="type90" maxSpeed="1.0"/>
	<vType id="type91" maxSpeed="0.7448067028726594"/>
	<vType id="type92" maxSpeed="0.1443465760112837"/>
	<vType id="type93" maxSpeed="1.207517378000248"/>
	<vType id="type94" maxSpeed="1.072839569633266"/>
	<vType id="type95" maxSpeed="0.039426071290696175"/>
	<vType id="type96" maxSpeed="0.6874637847781098"/>
	<vType id="type97" maxSpeed="0.8104812454511562"/>
	<vType id="type98" maxSpeed="0.9932290486976212"/>
	<vType id="type99" maxSpeed="0.018141159280839616"/>
	<vType id="type100" maxSpeed="1.3095310063784533"/>
	<vType id="type101" maxSpeed="0.8761500261841556"/>
	<vType id="type102" maxSpeed="0.11375626610213496"/>
	<vType id="type103" maxSpeed="0.7445608323306679"/>
	<vType id="type104" maxSpeed="0.19197291685474407"/>
	<vType id="type105" maxSpeed="0.9768785543449371"/>
	<vType id="type106" maxSpeed="0.6797626785714286"/>
	<vType id="type107" maxSpeed="0.5686987287119214"/>
	<vType id="type108" maxSpeed="1.0"/>
	<vType id="type109" maxSpeed="1.2361871676710376"/>
	<vType id="type110" maxSpeed="0.5256003764228967"/>
	<vType id="type111" maxSpeed="0.026305530855415257"/>
	<vType id="type112" maxSpeed="1.0"/>
	<vType id="type113" maxSpeed="0.01845340899745045"/>
	<vType id="type114" maxSpeed="1.0"/>
	<vType id="type115" maxSpeed="1.0"/>
	<vType id="type116" maxSpeed="0.6109311341242353"/>
	<vType id="type117" maxSpeed="1.0"/>
	<vType id="type118" maxSpeed="0.8014140482263348"/>
	<vType id="type119" maxSpeed="0.42542909873884965"/>
	<vType id="type120" maxSpeed="1.3101910195981137"/>
	<vType id="type121" maxSpeed="0.14292298147655763"/>
	<vType id="type122" maxSpeed="1.3158938859442302"/>
	<vType id="type123" maxSpeed="0.08665194124196388"/>
	<vType id="type124" maxSpeed="1.129078142775882"/>
	<vType id="type125" maxSpeed="0.41918968857634914"/>
	<vType id="type126" maxSpeed="0.1803401914850275"/>
	<vType id="type127" maxSpeed="0.9298179164515941"/>
	<vType id="type128" maxSpeed="0.1275654259571822"/>
	<vType id="type129" maxSpeed="1.0"/>
	<vType id="type130" maxSpeed="0.7091984400507895"/>
	<vType id="type131" maxSpeed="1.013573197014765"/>
	<vType id="type132" maxSpeed="0.07238900937393579"/>
	<vType id="type133" maxSpeed="0.3667564360707608"/>
	<vType id="type134" maxSpeed="0.915165530583831"/>
	<vType id="type135" maxSpeed="0.01026077242844324"/>
	<vType id="type136" maxSpeed="0.1758760137356616"/>
	<vType id="type137" maxSpeed="0.6429492531774748"/>
	<vType id="type138" maxSpeed="0.44627350857636017"/>
	<vType id="type139" maxSpeed="0.5999223265895958"/>
	<vType id="type140" maxSpeed="8.0"/>
	<vType id="type141" maxSpeed="1.161887190395501"/>
	<vType id="type142" maxSpeed="0.18188201041413932"/>
	<vType id="type143" maxSpeed="0.21391798588594316"/>
	<vType id="type144" maxSpeed="0.08263502392344498"/>
	<vType id="type145" maxSpeed="8.0"/>
	<vType id="type146" maxSpeed="0.03671927405913702"/>
	<vType id="type147" maxSpeed="0.19803239779267787"/>
	<vType id="type148" maxSpeed="8.351731748726655"/>
	<vType id="type149" maxSpeed="8.0"/>
	<vType id="type150" maxSpeed="0.49404321608040197"/>
	<vType id="type151" maxSpeed="1.4771801830088815"/>
	<vType id="type152" maxSpeed="8.597230769230768"/>
	<vType id="type153" maxSpeed="0.27098932794923564"/>
	<vType id="type154" maxSpeed="0.47232799666706343"/>
	<vType id="type155" maxSpeed="8.0"/>
	<vType id="type156" maxSpeed="1.481979572669644"/>
	<vType id="type157" maxSpeed="1.286778814592514"/>
	<vType id="type158" maxSpeed="0.9549998825436345"/>
	<vType id="type159" maxSpeed="9.688934911242601"/>
	<vType id="type160" maxSpeed="0.4729825279395561"/>
	<vType id="type161" maxSpeed="1.8781277135470043"/>
	<vType id="type162" maxSpeed="8.484093264248703"/>
	<vType id="type163" maxSpeed="0.472818177985751"/>
	<vType id="type164" maxSpeed="9.990015576323987"/>
	<vType id="type165" maxSpeed="0.01571040424121935"/>
	<vType id="type166" maxSpeed="1.0055967666412018"/>
	<vType id="type167" maxSpeed="8.584938917975567"/>
	<vType id="type168" maxSpeed="7.687464788732393"/>
	<vType id="type169" maxSpeed="1.2669385228651378"/>
	<vType id="type170" maxSpeed="8.0510147299509"/>
	<vType id="type171" maxSpeed="8.0"/>
	<vType id="type172" maxSpeed="0.8060436072764804"/>
	<vType id="type173" maxSpeed="7.904020926756353"/>
	<vType id="type174" maxSpeed="1.0"/>
	<vType id="type175" maxSpeed="9.70250493096647"/>
	<vType id="type176" maxSpeed="1.2096350364963504"/>
	<vType id="type177" maxSpeed="1.6942596697879087"/>
	<vType id="type178" maxSpeed="0.3604013850611264"/>
	<vType id="type179" maxSpeed="1.6267200559667148"/>
	<vType id="type180" maxSpeed="0.5079296307066008"/>
	<vType id="type181" maxSpeed="0.5251776487508655"/>
	<vType id="type182" maxSpeed="0.8289652509652509"/>
	<vType id="type183" maxSpeed="9.850173410404624"/>
	<vType id="type184" maxSpeed="0.41623755949805274"/>
	<vType id="type185" maxSpeed="9.092735674676526"/>
	<vType id="type186" maxSpeed="8.0"/>
	<vType id="type187" maxSpeed="2.184627414903404"/>
	<vType id="type188" maxSpeed="0.7344069636694972"/>
	<vType id="type189" maxSpeed="0.9907020258863253"/>
	<vType id="type190" maxSpeed="8.740729537366546"/>
	<vType id="type191" maxSpeed="1.4471279090745082"/>
	<vType id="type192" maxSpeed="2.501244127319707"/>
	<vType id="type193" maxSpeed="1.7189605841149234"/>
	<vType id="type194" maxSpeed="1.807374176411743"/>
	<vType id="type195" maxSpeed="1.4618695873662768"/>
	<vType id="type196" maxSpeed="1.0255751069000532"/>
	<vType id="type197" maxSpeed="1.8407445187373668"/>
	<vType id="type198" maxSpeed="8.0"/>
	<vType id="type199" maxSpeed="1.7352543577698099"/>
	<vType id="type200" maxSpeed="1.7119977577116543"/>
	<vType id="type201" maxSpeed="1.9012510973210244"/>
	<vType id="type202" maxSpeed="1.6096451722961422"/>
	<vType id="type203" maxSpeed="1.493222655022931"/>
	<vType id="type204" maxSpeed="2.6496845553822133"/>
	<vType id="type205" maxSpeed="8.0"/>
	<vType id="type206" maxSpeed="0.5664288913773795"/>
	<vType id="type207" maxSpeed="8.0"/>
	<vType id="type208" maxSpeed="7.698231611893584"/>
	<vType id="type209" maxSpeed="0.2671664062749099"/>
	<vType id="type210" maxSpeed="2.582658554969313"/>
	<vType id="type211" maxSpeed="8.630122807017544"/>
	<vType id="type212" maxSpeed="1.934865777104823"/>
	<vType id="type213" maxSpeed="6.926813996316759"/>
	<vType id="type214" maxSpeed="2.277774386366526"/>
	<vType id="type215" maxSpeed="8.82321568627451"/>
	<vType id="type216" maxSpeed="0.4692532896234575"/>
	<vType id="type217" maxSpeed="1.830740657578189"/>
	<vType id="type218" maxSpeed="1.542246857836034"/>
	<vType id="type219" maxSpeed="0.6062629251819102"/>
	<vType id="type220" maxSpeed="0.380302483900644"/>
	<vType id="type221" maxSpeed="2.185930476377692"/>
	<vType id="type222" maxSpeed="1.6068372303174068"/>
	<vType id="type223" maxSpeed="6.751666666666666"/>
	<vType id="type224" maxSpeed="3.1633889340927586"/>
	<vType id="type225" maxSpeed="1.8853434212954427"/>
	<vType id="type226" maxSpeed="8.0"/>
	<vType id="type227" maxSpeed="2.611499266093521"/>
	<vType id="type228" maxSpeed="2.0437321985055132"/>
	<vType id="type229" maxSpeed="1.9252218441532203"/>
	<vType id="type230" maxSpeed="0.31279394603769584"/>
	<vType id="type231" maxSpeed="8.0"/>
	<vType id="type232" maxSpeed="6.671961538461539"/>
	<vType id="type233" maxSpeed="1.7281706642704076"/>
	<vType id="type234" maxSpeed="1.9293430447271243"/>
	<vType id="type235" maxSpeed="1.2057711561382598"/>
	<vType id="type236" maxSpeed="2.163296650717703"/>
	<vType id="type237" maxSpeed="8.092734761120262"/>
	<vType id="type238" maxSpeed="2.5382830554210214"/>
	<vType id="type239" maxSpeed="1.006037859007833"/>
	<vType id="type240" maxSpeed="8.0"/>
	<vType id="type241" maxSpeed="0.057277012111449206"/>
	<vType id="type242" maxSpeed="1.4162344837232064"/>
	<vType id="type243" maxSpeed="4.780534499514092"/>
	<vType id="type244" maxSpeed="0.576874720357942"/>
	<vType id="type245" maxSpeed="0.10849090443248782"/>
	<vType id="type246" maxSpeed="0.7133280088468391"/>
	<vType id="type247" maxSpeed="2.2069663123761485"/>
	<vType id="type248" maxSpeed="9.570369649805448"/>
	<vType id="type249" maxSpeed="0.5376190476190477"/>
	<vType id="type250" maxSpeed="1.8472733935045909"/>
	<vType id="type251" maxSpeed="9.309713774597496"/>
	<vType id="type252" maxSpeed="7.984871794871795"/>
	<vType id="type253" maxSpeed="2.0394314172302264"/>
	<vType id="type254" maxSpeed="0.8207382768132402"/>
	<vType id="type255" maxSpeed="8.408837606837608"/>
	<vType id="type256" maxSpeed="1.2197055710938094"/>
	<vType id="type257" maxSpeed="1.6535252256192117"/>
	<vType id="type258" maxSpeed="8.0"/>
	<vType id="type259" maxSpeed="4.631532846715328"/>
	<vType id="type260" maxSpeed="1.5250782819667155"/>
	<vType id="type261" maxSpeed="2.149802097235463"/>
	<vType id="type262" maxSpeed="7.915069033530572"/>
	<vType id="type263" maxSpeed="1.1876936418463477"/>
	<vType id="type264" maxSpeed="1.6753025550795582"/>
	<vType id="type265" maxSpeed="0.9532890794073581"/>
	<vType id="type266" maxSpeed="1.216306958128079"/>
	<vType id="type267" maxSpeed="1.7646618281679083"/>
	<vType id="type268" maxSpeed="0.548805644343962"/>
	<vType id="type269" maxSpeed="0.6777761058092111"/>
	<vType id="type270" maxSpeed="0.6434225019669552"/>
	<vType id="type271" maxSpeed="2.06628534652669"/>
	<vType id="type272" maxSpeed="7.531302460202605"/>
	<vType id="type273" maxSpeed="8.0"/>
	<vType id="type274" maxSpeed="0.6850588748364589"/>
	<vType id="type275" maxSpeed="2.7713465069860277"/>
	<vType id="type276" maxSpeed="8.0"/>
	<vType id="type277" maxSpeed="5.934836956521741"/>
	<vType id="type278" maxSpeed="9.390642361111112"/>
	<vType id="type279" maxSpeed="9.631941176470587"/>
	<vType id="type280" maxSpeed="0.18497046923685068"/>
	<vType id="type281" maxSpeed="0.04279193400549954"/>
	<vType id="type282" maxSpeed="1.0"/>
	<vType id="type283" maxSpeed="1.4861500064546675"/>
	<vType id="type284" maxSpeed="3.0933009034051424"/>
	<vType id="type285" maxSpeed="1.730476828288239"/>
	<vType id="type286" maxSpeed="0.04789625806451613"/>
	<vType id="type287" maxSpeed="1.780726791787379"/>
	<vType id="type288" maxSpeed="1.8670377247025058"/>
	<vType id="type289" maxSpeed="8.382747440273036"/>
	<vType id="type290" maxSpeed="0.1579034107802744"/>
	<vType id="type291" maxSpeed="8.0"/>
	<vType id="type292" maxSpeed="2.064583665515102"/>
	<vType id="type293" maxSpeed="8.0"/>
	<vType id="type294" maxSpeed="1.5610773781044749"/>
	<vType id="type295" maxSpeed="1.0"/>
	<vType id="type296" maxSpeed="9.664381139489194"/>
	<vType id="type297" maxSpeed="8.587673267326732"/>
	<vType id="type298" maxSpeed="9.727515432098766"/>
	<vType id="type299" maxSpeed="1.7229300458715584"/>
	<vType id="type300" maxSpeed="0.3809317786642119"/>
	<vType id="type301" maxSpeed="9.046574585635357"/>
	<vType id="type302" maxSpeed="9.046692506459946"/>
	<vType id="type303" maxSpeed="9.863202054794522"/>
	<vType id="type304" maxSpeed="8.425883361921096"/>
	<vType id="type305" maxSpeed="6.7026328800988875"/>
	<vType id="type306" maxSpeed="2.02892051030422"/>
	<vType id="type307" maxSpeed="1.293666192508298"/>
	<vType id="type308" maxSpeed="7.487321156773212"/>
	<vType id="type309" maxSpeed="1.1381796818510488"/>
	<vType id="type310" maxSpeed="5.991680876979293"/>
	<vType id="type311" maxSpeed="1.0"/>
	<vType id="type312" maxSpeed="6.729164383561643"/>
	<vType id="type313" maxSpeed="8.0"/>
	<vType id="type314" maxSpeed="1.1449645216540252"/>
	<vType id="type315" maxSpeed="2.411465298142718"/>
	<vType id="type316" maxSpeed="8.0"/>
	<vType id="type317" maxSpeed="3.727085889570552"/>
	<vType id="type318" maxSpeed="8.0"/>
	<vType id="type319" maxSpeed="1.8795458822364182"/>
	<vType id="type320" maxSpeed="8.031687192118227"/>
	<vType id="type321" maxSpeed="8.0"/>
	<vType id="type322" maxSpeed="8.0"/>
	<vType id="type323" maxSpeed="9.765984095427433"/>
	<vType id="type324" maxSpeed="1.0391694887026037"/>
	<vType id="type325" maxSpeed="8.306726998491705"/>
	<vType id="type326" maxSpeed="8.960236794171221"/>
	<vType id="type327" maxSpeed="0.14992908953123307"/>
	<vType id="type328" maxSpeed="8.540225694444445"/>
	<vType id="type329" maxSpeed="8.816349745331069"/>
	<vType id="type330" maxSpeed="4.561915839890524"/>
	<vType id="type331" maxSpeed="8.72798732171157"/>
	<vType id="type332" maxSpeed="2.334213085150716"/>
	<vType id="type333" maxSpeed="1.5339281920543875"/>
	<vType id="type334" maxSpeed="9.483185328185327"/>
	<vType id="type335" maxSpeed="1.0"/>
	<vType id="type336" maxSpeed="8.100228802153433"/>
	<vType id="type337" maxSpeed="2.408083432657927"/>
	<vType id="type338" maxSpeed="0.3172860447185813"/>
	<vType id="type339" maxSpeed="0.3564629826425788"/>
	<vType id="type340" maxSpeed="0.26917726104999673"/>
	<vType id="type341" maxSpeed="1.0"/>
	<vType id="type342" maxSpeed="8.557996515679442"/>
	<vType id="type343" maxSpeed="1.0"/>
	<vType id="type344" maxSpeed="8.0"/>
	<vType id="type345" maxSpeed="8.618052631578946"/>
	<vType id="type346" maxSpeed="8.0"/>
	<vType id="type347" maxSpeed="1.5809435294117644"/>
	<vType id="type348" maxSpeed="1.8196971916971916"/>
	<vType id="type349" maxSpeed="8.6757848324515"/>
	<vType id="type350" maxSpeed="0.989607598100475"/>
	<vType id="type351" maxSpeed="5.019285130718954"/>
	<vType id="type352" maxSpeed="2.546866153205661"/>
	<vType id="type353" maxSpeed="6.585234270414993"/>
	<vType id="type354" maxSpeed="8.325915254237287"/>
	<vType id="type355" maxSpeed="3.3147130946542425"/>
	<vType id="type356" maxSpeed="9.272116527942925"/>
	<vType id="type357" maxSpeed="0.04248026248333846"/>
	<vType id="type358" maxSpeed="6.64721244925575"/>
	<vType id="type359" maxSpeed="9.61635185185185"/>
	<vType id="type360" maxSpeed="8.0"/>
	<vType id="type361" maxSpeed="4.91817672751708"/>
	<vType id="type362" maxSpeed="8.0"/>
	<vType id="type363" maxSpeed="1.2008244916003536"/>
	<vType id="type364" maxSpeed="8.0"/>
	<vType id="type365" maxSpeed="5.785971731448762"/>
	<vType id="type366" maxSpeed="5.55838418079096"/>
	<vType id="type367" maxSpeed="8.0"/>
	<vType id="type368" maxSpeed="8.0"/>
	<vType id="type369" maxSpeed="9.410517241379308"/>
	<vType id="type370" maxSpeed="8.0"/>
	<vType id="type371" maxSpeed="3.765236559139785"/>
	<vType id="type372" maxSpeed="8.0"/>
	<vType id="type373" maxSpeed="1.2487947882736155"/>
	<vType id="type374" maxSpeed="7.694659340659339"/>
	<vType id="type375" maxSpeed="1.7476011887913956"/>
	<vType id="type376" maxSpeed="9.631941176470587"/>
	<vType id="type377" maxSpeed="9.672331460674156"/>
	<vType id="type378" maxSpeed="8.0"/>
	<vType id="type379" maxSpeed="0.2543009079118029"/>
	<vType id="type380" maxSpeed="8.714236006051438"/>
	<vType id="type381" maxSpeed="1.0"/>
	<vType id="type382" maxSpeed="8.0"/>
	<vType id="type383" maxSpeed="8.644734219269104"/>
	<vType id="type384" maxSpeed="8.0"/>
	<vType id="type385" maxSpeed="1.8890333333333331"/>
	<vType id="type386" maxSpeed="8.897545219638241"/>
	<vType id="type387" maxSpeed="8.831319218241044"/>
	<vType id="type388" maxSpeed="8.0"/>
	<vType id="type389" maxSpeed="6.520800744878957"/>
	<vType id="type390" maxSpeed="2.1126612903225817"/>
	<vType id="type391" maxSpeed="9.298998109640833"/>
	<vType id="type392" maxSpeed="2.015388535031847"/>
	<vType id="type393" maxSpeed="8.0"/>
	<vType id="type394" maxSpeed="6.613888888888888"/>
	<vType id="type395" maxSpeed="4.131183844011142"/>
	<vType id="type396" maxSpeed="7.9751025056947595"/>
	<vType id="type397" maxSpeed="8.0"/>
	<vType id="type398" maxSpeed="8.935514403292181"/>
	<vehicle id="244780654" type="type0" depart="0" departLane="free" departSpeed="max" departPos="last">
		<route id="244780654" edges="-29472669 29472669 gneE49 gneE50 gneE49 29474838#2 29472797 68237455 68237456 -68237456 68237456 -29407365#2 -29407365#1 gneE34 -17163948#0 -195582876 -17162472#5 -17162472#4 17162472#4 -17162472#4 -17162472#2 17162472#2 -17162472#2 -17162472#1 17162472#1 -17162472#1 -17162472#0 17162472#0 -17162472#0 29473678#2 gneE43 58985549 -58985549 360632518#1 360632520 360632524#2 360632524#3 360632524#4 -29474860#1 -29474860#0 -29472010#1 -29474883 -29474838#3 -29474838#2 gneE50 -29472669 29472669 gneE49 gneE50 gneE49 29474838#2 29472797 -29472797 29472797 68237455 68237456 -29407365#2 -29407365#1 gneE34 -17163948#0 -195582876 195582876 -195582876 -17162472#5 -17162472#4 17162472#4 -17162472#4 17162472#4 -17162472#4 -17162472#2 17162472#2 -17162472#2 -17162472#1 -17162472#0 17162472#0 -17162472#0 29473678#2 -29473678#2 29473678#2 gneE43 58985549 -58985549 360632518#1 360632520 360632524#2 360632524#3 360632524#4 -29474860#1 -29474860#0 -29472010#1 -29474883 -29474838#3 -29474838#2 gneE50 -29472669 29472669 gneE49 gneE50 gneE49 29474838#2 29472797 68237455 68237456 -68237456 68237456 -29407365#2 -29407365#1 29407365#1 -29407365#1 gneE34 -17163948#0 -195582876 195582876 -195582876 -17162472#5 -17162472#4 17162472#4 -17162472#4 -17162472#2 -17162472#1 -17162472#0 29473678#2 gneE43 360632518#1 360632520 360632524#2 360632524#3 360632524#4 -29474860#1 -29474860#0 -29472010#1 -29474883 -29474838#3 -29474838#2 gneE50 -29472669 29472669 gneE49 gneE50 gneE49 29474838#2 29472797 68237455 68237456 -68237456 68237456 -29407365#2 -29407365#1 gneE34 -17163948#0 -195582876 195582876 -195582876 -17162472#5 -17162472#4 17162472#4 -17162472#4 -17162472#2 17162472#2 -17162472#2 -17162472#1 -17162472#0 17162472#0 -17162472#0 29473678#2 gneE43 58985549 -58985549 360632518#1 360632520 360632524#2 360632524#3 360632524#4 -29474860#1 -29474860#0 -29472010#1 -29474883 -29474838#3 -29474838#2 gneE50 -29472669"/>
	</vehicle>
	<vehicle id="244670683" type="type1" depart="23" departLane="free" departSpeed="max" departPos="last">
		<route id="244670683" edges="29474370#1"/>
	</vehicle>
	<vehicle id="244740540" type="type2" depart="31" departLane="free" departSpeed="max" departPos="last">
		<route id="244740540" edges="360632516"/>
	</vehicle>
	<vehicle id="244110703" type="type3" depart="35" departLane="free" departSpeed="max" departPos="last">
		<route id="244110703" edges="527004184#0 gneE4 30123973#4 30123973#5 -17162472#5 17162472#5 -17162472#5 -17162472#4 17162472#4 -17162472#4 -17162472#2 17162472#2 -17162472#2 -15498784#1 -15498784#0 29473019#2 29473019#3 29473019#4 29473019#5 29473019#6 -12869939#1 479495084#2 -479495084#2 479495084#2 601083337 601083338 601083337 601083336#0 601083336#1 -601083336#1 601083336#1 -601083336#1 601083336#1 29473678#1 29473678#2 -29473678#2 29473678#2 gneE43 360632518#1 360632520 360632524#2 360632524#3 360632524#4 -29474860#1 -29474860#0 -29472010#1 -29474883 -29474838#3 -29474838#2 gneE50 gneE49 29474838#2 -29474838#2 29474838#2 29474838#3 29474883 -29472010#0 -29407365#3 -29407365#2 -29407365#1 gneE34 -17163948#0 17163948#0 -17163948#0 -195582876 -30123973#5 -30123973#4 gneE5 -527004184#0 527004184#0"/>
	</vehicle>
	<vehicle id="244780634" type="type4" depart="51" departLane="free" departSpeed="max" departPos="last">
		<route id="244780634" edges="29472670 -29472670 29472670 -29472670 29472670 -29472670 29472670 -29472670 29472670 -29472670 -195582877#2 -195582877#1 -195582877#0 -195582876 -17162472#5 17162472#5 -17162472#5 -17162472#4 17162472#4 -17162472#4 -17162472#2 -15498784#1 601083336#1 29473678#1 29473678#2 gneE43 360632518#1 360632520 360632524#2 360632524#3 360632524#4 -29474860#1 -29474860#0 -29472010#1 -29474883 -29474838#3 29472797 -29472797 29472797 68237455 68237456 -29407365#2 -29407365#1 gneE34 -17163948#0 195582877#0 195582877#1 195582877#2 29472670 -29472670 -195582877#2 195582877#2 -195582877#2 -195582877#1 -195582877#0 -195582876 -17162472#5 -17162472#4 17162472#4 -17162472#4 -17162472#2 -17162472#1 -17162472#0 29473678#2 -29473678#2 29473678#2 gneE43 360632518#1 360632520 360632524#2 360632524#3 360632524#4 -29474860#1 -29474860#0 -29472010#1 -29474883 -29474838#3 29472797 68237455 68237456 -29407365#2 -29407365#1 gneE34 -17163948#0 195582877#0 195582877#1 195582877#2 29472670 -29472670 -195582877#2 -195582877#1 -195582877#0 -195582876 -17162472#5 17162472#5 -17162472#5 -17162472#4 -17162472#2 -17162472#1 -17162472#0 29473678#2 gneE43 360632518#1 360632520 360632524#2 360632524#3 360632524#4 -29474860#1 -29474860#0 -29472010#1 -29474883 29474883 -29474883 -29474838#3 29472797 68237455 68237456 -29407365#2 -29407365#1 29407365#1 -29407365#1 gneE34 -17163948#0 195582877#0 195582877#1 195582877#2 29472670 -29472670 29472670 -29472670 -195582877#2 -195582877#1 -195582877#0 -195582876 -17162472#5 -17162472#4 -17162472#2 -15498784#1 601083336#1 29473678#1 29473678#2 gneE43 360632518#1 360632520 360632524#2 360632524#3 360632524#4 -29474860#1 -29474860#0 -29472010#1 -29474883 -29474838#3 29472797 68237455 68237456 -68237456 68237456 -29407365#2 -29407365#1 gneE34 -17163948#0 195582877#0 195582877#1 195582877#2 29472670"/>
	</vehicle>
	<vehicle id="244780142" type="type5" depart="54" departLane="free" departSpeed="max" departPos="last">
		<route id="244780142" edges="-360632526 -33914156 33914156 360632526 -360632526 -33914156 33914156 360632526 -360632526"/>
	</vehicle>
	<vehicle id="244780686" type="type6" depart="63" departLane="free" departSpeed="max" departPos="last">
		<route id="244780686" edges="-29407365#2"/>
	</vehicle>
	<vehicle id="244750286" type="type7" depart="68" departLane="free" departSpeed="max" departPos="last">
		<route id="244750286" edges="360632524#3 -360632516 360632516 -360632524#3 360632524#3 -360632516 360632516 -360632524#3 360632524#3 -360632524#3 360632524#3 -360632516 360632516 -360632524#3 360632524#3 -360632516 360632516 -360632524#3 360632524#3 -360632516 360632516 -360632524#3 360632524#3 -360632516 360632516 -360632524#3 360632524#3 -360632516 360632516 -360632524#3 360632524#3 -360632516 360632516 -360632524#3 360632524#3 -360632524#3 360632524#3 -360632516 360632516 -360632524#3 360632524#3 -360632516 360632516 -360632524#3 360632524#3 -360632516 360632516 -360632524#3 360632524#3 -360632516 360632516 -360632524#3 360632524#3 -360632516 360632516 -360632524#3 360632524#3 -360632516 360632516 -360632524#3 360632524#3 -360632516 360632516 -360632524#3 360632524#3 -360632516 360632516 -360632524#3 360632524#3 -360632516 360632516 -360632524#3 360632524#3 -360632516 360632516 -360632524#3 360632524#3 -360632516 360632516 -360632524#3 360632524#3 -360632516 360632516 -360632524#3 360632524#3 -360632516 360632516 -360632524#3 360632524#3 -360632516 360632516 -360632524#3 360632524#3 -360632516 360632516 -360632524#3 360632524#3 -360632524#3 360632524#3 -360632516 360632516 -360632524#3 360632524#3 -360632516 360632516 -360632524#3 360632524#3 -360632516 360632516 -360632524#3 360632524#3 -360632516 360632516 -360632524#3 360632524#3 -360632516 360632516 -360632524#3 360632524#3 -360632516 360632516 -360632524#3 360632524#3 -360632516 360632516 -360632524#3 360632524#3 -360632516 360632516 -360632524#3 360632524#3 -360632516 360632516 -360632524#3 360632524#3 -360632516 360632516 -360632524#3 360632524#3 -360632516 360632516 -360632524#3 360632524#3 -360632516 360632516 -360632524#3 360632524#3 -360632516 360632516 -360632524#3 360632524#3 -360632516 360632516 -360632524#3 360632524#3 -360632516 360632516 -360632524#3 360632524#3 -360632516 360632516 -360632524#3 360632524#3 -360632516 360632516 -360632524#3 360632524#3 -360632516 360632516 -360632524#3 360632524#3 -360632516 360632516 -360632524#3 360632524#3 -360632516 360632516 -360632524#3 360632524#3 -360632516 360632516 -360632524#3 360632524#3 -360632516 360632516 -360632524#3 360632524#3 -360632516 360632516 -360632524#3 360632524#3 -360632516 360632516 -360632524#3 360632524#3 -360632516 360632516 -360632524#3 360632524#3 -360632516 360632516 -360632524#3 360632524#3 -360632516 360632516 -360632524#3 360632524#3 -360632516 360632516 -360632524#3 360632524#3 -360632516 360632516 -360632524#3 360632524#3 -360632516 360632516 -360632524#3 360632524#3 -360632516 360632516 -360632524#3 360632524#3 -360632516 360632516 -360632524#3 360632524#3 -360632516 360632516 -360632524#3 360632524#3 -360632516 360632516 -360632524#3 360632524#3 -360632516 360632516 -360632524#3 360632524#3 -360632516 360632516 -360632524#3 360632524#3 -360632516 360632516 -360632524#3 360632524#3 -360632516 360632516 -360632524#3 360632524#3 -360632516 360632516 -360632524#3 360632524#3 -360632516 360632516 -360632524#3 360632524#3 -360632516 360632516 -360632524#3 360632524#3 -360632516 360632516 -360632524#3 360632524#3 -360632516 360632516 -360632524#3 360632524#3 -360632516 360632516 -360632524#3 360632524#3 -360632516 360632516 -360632524#3 360632524#3 -360632516 360632516 -360632524#3 360632524#3 -360632516 360632516 -360632524#3 360632524#3 -360632516 360632516 -360632524#3 360632524#3 -360632524#3 360632524#3 -360632516 360632516 -360632524#3 360632524#3 -360632524#3 360632524#3 -360632516 360632516 -360632524#3 360632524#3 -360632516 360632516 -360632524#3 360632524#3 -360632516 360632516 -360632524#3 360632524#3 -360632516 360632516 -360632524#3 360632524#3"/>
	</vehicle>
	<vehicle id="244070982" type="type8" depart="83" departLane="free" departSpeed="max" departPos="last">
		<route id="244070982" edges="-92323947#1 92323947#1 -92323947#1 92323947#1 -92323947#1 92323947#1 -92323947#1 92323947#1 -92323947#1 92323947#1 -92323947#1 92323947#1 -92323947#1 92323947#1 -92323947#1 92323947#1"/>
	</vehicle>
	<vehicle id="244110350" type="type9" depart="98" departLane="free" departSpeed="max" departPos="last">